Env_base: K-1.2.0-20-1
interFoam
Running ./makeMesh on /work/job-0.5m10fps.5457544/mixerVessel2D
Running setFields on /work/job-0.5m10fps.5457544/mixerVessel2D
Running interFoam on /work/job-0.5m10fps.5457544/mixerVessel2D
/work/job-0.5m10fps.5457544/mixerVessel2D/..
total 536
-rw-r--r--  1 a03106 ra000007 2865 May 22  2015 RunFunctions
drwxrwxrwx  2 a03106 ra000007 4096 Oct 28 13:05 bin
drwxrwxrwx  2 a03106 ra000007 4096 Oct 28 13:05 etc
drwxrwxrwx  2 a03106 ra000007 8192 Oct 28 13:05 lib
drwxrwxrwx 45 a03106 ra000007 4096 Oct 28 13:11 mixerVessel2D
/*---------------------------------------------------------------------------*\
| =========                 |                                                 |
| \\      /  F ield         | OpenFOAM: The Open Source CFD Toolbox           |
|  \\    /   O peration     | Version:  2.4.0                                 |
|   \\  /    A nd           | Web:      www.OpenFOAM.org                      |
|    \\/     M anipulation  |                                                 |
\*---------------------------------------------------------------------------*/
Build  : 2.4.0-dcea1e13ff76
Exec   : ../bin/foamToVTK -ascii
Date   : Oct 28 2016
Time   : 13:12:00
Host   : "o05-041"
PID    : 23587
Case   : /work/job-0.5m10fps.5457544/mixerVessel2D
nProcs : 1
fileModificationChecking : Monitoring run-time modified files using timeStampMaster
allowSystemOperations : Allowing user-supplied system call operations

// * * * * * * * * * * * * * * * * * * * * * * * * * * * * * * * * * * * * * //
Create time

Create mesh for time = 0

Time: 0
    volScalarFields            : p_rgh alpha.water alpha.water.org
    volVectorFields            : U

    Internal  : "/work/job-0.5m10fps.5457544/mixerVessel2D/VTK/mixerVessel2D_0.vtk"
    Original cells:3072 points:6528   Additional cells:0  additional points:0

    Patch     : "/work/job-0.5m10fps.5457544/mixerVessel2D/VTK/rotor/rotor_0.vtk"
    Patch     : "/work/job-0.5m10fps.5457544/mixerVessel2D/VTK/stator/stator_0.vtk"
    Patch     : "/work/job-0.5m10fps.5457544/mixerVessel2D/VTK/front/front_0.vtk"
    Patch     : "/work/job-0.5m10fps.5457544/mixerVessel2D/VTK/back/back_0.vtk"
Time: 0.1
    volScalarFields            : p alpha.water p_rgh
    volVectorFields            : U

    Internal  : "/work/job-0.5m10fps.5457544/mixerVessel2D/VTK/mixerVessel2D_52.vtk"
    Patch     : "/work/job-0.5m10fps.5457544/mixerVessel2D/VTK/rotor/rotor_52.vtk"
    Patch     : "/work/job-0.5m10fps.5457544/mixerVessel2D/VTK/stator/stator_52.vtk"
    Patch     : "/work/job-0.5m10fps.5457544/mixerVessel2D/VTK/front/front_52.vtk"
    Patch     : "/work/job-0.5m10fps.5457544/mixerVessel2D/VTK/back/back_52.vtk"
    surfScalarFields  : phi phiAlpha
Time: 0.2
    volScalarFields            : p alpha.water p_rgh
    volVectorFields            : U

    Internal  : "/work/job-0.5m10fps.5457544/mixerVessel2D/VTK/mixerVessel2D_99.vtk"
    Patch     : "/work/job-0.5m10fps.5457544/mixerVessel2D/VTK/rotor/rotor_99.vtk"
    Patch     : "/work/job-0.5m10fps.5457544/mixerVessel2D/VTK/stator/stator_99.vtk"
    Patch     : "/work/job-0.5m10fps.5457544/mixerVessel2D/VTK/front/front_99.vtk"
    Patch     : "/work/job-0.5m10fps.5457544/mixerVessel2D/VTK/back/back_99.vtk"
    surfScalarFields  : phi phiAlpha
Time: 0.3
    volScalarFields            : p alpha.water p_rgh
    volVectorFields            : U

    Internal  : "/work/job-0.5m10fps.5457544/mixerVessel2D/VTK/mixerVessel2D_155.vtk"
    Patch     : "/work/job-0.5m10fps.5457544/mixerVessel2D/VTK/rotor/rotor_155.vtk"
    Patch     : "/work/job-0.5m10fps.5457544/mixerVessel2D/VTK/stator/stator_155.vtk"
    Patch     : "/work/job-0.5m10fps.5457544/mixerVessel2D/VTK/front/front_155.vtk"
    Patch     : "/work/job-0.5m10fps.5457544/mixerVessel2D/VTK/back/back_155.vtk"
    surfScalarFields  : phi phiAlpha
Time: 0.4
    volScalarFields            : p alpha.water p_rgh
    volVectorFields            : U

    Internal  : "/work/job-0.5m10fps.5457544/mixerVessel2D/VTK/mixerVessel2D_223.vtk"
    Patch     : "/work/job-0.5m10fps.5457544/mixerVessel2D/VTK/rotor/rotor_223.vtk"
    Patch     : "/work/job-0.5m10fps.5457544/mixerVessel2D/VTK/stator/stator_223.vtk"
    Patch     : "/work/job-0.5m10fps.5457544/mixerVessel2D/VTK/front/front_223.vtk"
    Patch     : "/work/job-0.5m10fps.5457544/mixerVessel2D/VTK/back/back_223.vtk"
    surfScalarFields  : phi phiAlpha
Time: 0.5
    volScalarFields            : p alpha.water p_rgh
    volVectorFields            : U

    Internal  : "/work/job-0.5m10fps.5457544/mixerVessel2D/VTK/mixerVessel2D_290.vtk"
    Patch     : "/work/job-0.5m10fps.5457544/mixerVessel2D/VTK/rotor/rotor_290.vtk"
    Patch     : "/work/job-0.5m10fps.5457544/mixerVessel2D/VTK/stator/stator_290.vtk"
    Patch     : "/work/job-0.5m10fps.5457544/mixerVessel2D/VTK/front/front_290.vtk"
    Patch     : "/work/job-0.5m10fps.5457544/mixerVessel2D/VTK/back/back_290.vtk"
    surfScalarFields  : phi phiAlpha
Time: 0.6
    volScalarFields            : p alpha.water p_rgh
    volVectorFields            : U

    Internal  : "/work/job-0.5m10fps.5457544/mixerVessel2D/VTK/mixerVessel2D_350.vtk"
    Patch     : "/work/job-0.5m10fps.5457544/mixerVessel2D/VTK/rotor/rotor_350.vtk"
    Patch     : "/work/job-0.5m10fps.5457544/mixerVessel2D/VTK/stator/stator_350.vtk"
    Patch     : "/work/job-0.5m10fps.5457544/mixerVessel2D/VTK/front/front_350.vtk"
    Patch     : "/work/job-0.5m10fps.5457544/mixerVessel2D/VTK/back/back_350.vtk"
    surfScalarFields  : phi phiAlpha
Time: 0.7
    volScalarFields            : p alpha.water p_rgh
    volVectorFields            : U

    Internal  : "/work/job-0.5m10fps.5457544/mixerVessel2D/VTK/mixerVessel2D_416.vtk"
    Patch     : "/work/job-0.5m10fps.5457544/mixerVessel2D/VTK/rotor/rotor_416.vtk"
    Patch     : "/work/job-0.5m10fps.5457544/mixerVessel2D/VTK/stator/stator_416.vtk"
    Patch     : "/work/job-0.5m10fps.5457544/mixerVessel2D/VTK/front/front_416.vtk"
    Patch     : "/work/job-0.5m10fps.5457544/mixerVessel2D/VTK/back/back_416.vtk"
    surfScalarFields  : phi phiAlpha
Time: 0.8
    volScalarFields            : p alpha.water p_rgh
    volVectorFields            : U

    Internal  : "/work/job-0.5m10fps.5457544/mixerVessel2D/VTK/mixerVessel2D_488.vtk"
    Patch     : "/work/job-0.5m10fps.5457544/mixerVessel2D/VTK/rotor/rotor_488.vtk"
    Patch     : "/work/job-0.5m10fps.5457544/mixerVessel2D/VTK/stator/stator_488.vtk"
    Patch     : "/work/job-0.5m10fps.5457544/mixerVessel2D/VTK/front/front_488.vtk"
    Patch     : "/work/job-0.5m10fps.5457544/mixerVessel2D/VTK/back/back_488.vtk"
    surfScalarFields  : phi phiAlpha
Time: 0.9
    volScalarFields            : p alpha.water p_rgh
    volVectorFields            : U

    Internal  : "/work/job-0.5m10fps.5457544/mixerVessel2D/VTK/mixerVessel2D_558.vtk"
    Patch     : "/work/job-0.5m10fps.5457544/mixerVessel2D/VTK/rotor/rotor_558.vtk"
    Patch     : "/work/job-0.5m10fps.5457544/mixerVessel2D/VTK/stator/stator_558.vtk"
    Patch     : "/work/job-0.5m10fps.5457544/mixerVessel2D/VTK/front/front_558.vtk"
    Patch     : "/work/job-0.5m10fps.5457544/mixerVessel2D/VTK/back/back_558.vtk"
    surfScalarFields  : phi phiAlpha
Time: 1
    volScalarFields            : p alpha.water p_rgh
    volVectorFields            : U

    Internal  : "/work/job-0.5m10fps.5457544/mixerVessel2D/VTK/mixerVessel2D_621.vtk"
    Patch     : "/work/job-0.5m10fps.5457544/mixerVessel2D/VTK/rotor/rotor_621.vtk"
    Patch     : "/work/job-0.5m10fps.5457544/mixerVessel2D/VTK/stator/stator_621.vtk"
    Patch     : "/work/job-0.5m10fps.5457544/mixerVessel2D/VTK/front/front_621.vtk"
    Patch     : "/work/job-0.5m10fps.5457544/mixerVessel2D/VTK/back/back_621.vtk"
    surfScalarFields  : phi phiAlpha
Time: 1.1
    volScalarFields            : p alpha.water p_rgh
    volVectorFields            : U

    Internal  : "/work/job-0.5m10fps.5457544/mixerVessel2D/VTK/mixerVessel2D_682.vtk"
    Patch     : "/work/job-0.5m10fps.5457544/mixerVessel2D/VTK/rotor/rotor_682.vtk"
    Patch     : "/work/job-0.5m10fps.5457544/mixerVessel2D/VTK/stator/stator_682.vtk"
    Patch     : "/work/job-0.5m10fps.5457544/mixerVessel2D/VTK/front/front_682.vtk"
    Patch     : "/work/job-0.5m10fps.5457544/mixerVessel2D/VTK/back/back_682.vtk"
    surfScalarFields  : phi phiAlpha
Time: 1.2
    volScalarFields            : p alpha.water p_rgh
    volVectorFields            : U

    Internal  : "/work/job-0.5m10fps.5457544/mixerVessel2D/VTK/mixerVessel2D_744.vtk"
    Patch     : "/work/job-0.5m10fps.5457544/mixerVessel2D/VTK/rotor/rotor_744.vtk"
    Patch     : "/work/job-0.5m10fps.5457544/mixerVessel2D/VTK/stator/stator_744.vtk"
    Patch     : "/work/job-0.5m10fps.5457544/mixerVessel2D/VTK/front/front_744.vtk"
    Patch     : "/work/job-0.5m10fps.5457544/mixerVessel2D/VTK/back/back_744.vtk"
    surfScalarFields  : phi phiAlpha
Time: 1.3
    volScalarFields            : p alpha.water p_rgh
    volVectorFields            : U

    Internal  : "/work/job-0.5m10fps.5457544/mixerVessel2D/VTK/mixerVessel2D_802.vtk"
    Patch     : "/work/job-0.5m10fps.5457544/mixerVessel2D/VTK/rotor/rotor_802.vtk"
    Patch     : "/work/job-0.5m10fps.5457544/mixerVessel2D/VTK/stator/stator_802.vtk"
    Patch     : "/work/job-0.5m10fps.5457544/mixerVessel2D/VTK/front/front_802.vtk"
    Patch     : "/work/job-0.5m10fps.5457544/mixerVessel2D/VTK/back/back_802.vtk"
    surfScalarFields  : phi phiAlpha
Time: 1.4
    volScalarFields            : p alpha.water p_rgh
    volVectorFields            : U

    Internal  : "/work/job-0.5m10fps.5457544/mixerVessel2D/VTK/mixerVessel2D_861.vtk"
    Patch     : "/work/job-0.5m10fps.5457544/mixerVessel2D/VTK/rotor/rotor_861.vtk"
    Patch     : "/work/job-0.5m10fps.5457544/mixerVessel2D/VTK/stator/stator_861.vtk"
    Patch     : "/work/job-0.5m10fps.5457544/mixerVessel2D/VTK/front/front_861.vtk"
    Patch     : "/work/job-0.5m10fps.5457544/mixerVessel2D/VTK/back/back_861.vtk"
    surfScalarFields  : phi phiAlpha
Time: 1.5
    volScalarFields            : p alpha.water p_rgh
    volVectorFields            : U

    Internal  : "/work/job-0.5m10fps.5457544/mixerVessel2D/VTK/mixerVessel2D_929.vtk"
    Patch     : "/work/job-0.5m10fps.5457544/mixerVessel2D/VTK/rotor/rotor_929.vtk"
    Patch     : "/work/job-0.5m10fps.5457544/mixerVessel2D/VTK/stator/stator_929.vtk"
    Patch     : "/work/job-0.5m10fps.5457544/mixerVessel2D/VTK/front/front_929.vtk"
    Patch     : "/work/job-0.5m10fps.5457544/mixerVessel2D/VTK/back/back_929.vtk"
    surfScalarFields  : phi phiAlpha
Time: 1.6
    volScalarFields            : p alpha.water p_rgh
    volVectorFields            : U

    Internal  : "/work/job-0.5m10fps.5457544/mixerVessel2D/VTK/mixerVessel2D_998.vtk"
    Patch     : "/work/job-0.5m10fps.5457544/mixerVessel2D/VTK/rotor/rotor_998.vtk"
    Patch     : "/work/job-0.5m10fps.5457544/mixerVessel2D/VTK/stator/stator_998.vtk"
    Patch     : "/work/job-0.5m10fps.5457544/mixerVessel2D/VTK/front/front_998.vtk"
    Patch     : "/work/job-0.5m10fps.5457544/mixerVessel2D/VTK/back/back_998.vtk"
    surfScalarFields  : phi phiAlpha
Time: 1.7
    volScalarFields            : p alpha.water p_rgh
    volVectorFields            : U

    Internal  : "/work/job-0.5m10fps.5457544/mixerVessel2D/VTK/mixerVessel2D_1075.vtk"
    Patch     : "/work/job-0.5m10fps.5457544/mixerVessel2D/VTK/rotor/rotor_1075.vtk"
    Patch     : "/work/job-0.5m10fps.5457544/mixerVessel2D/VTK/stator/stator_1075.vtk"
    Patch     : "/work/job-0.5m10fps.5457544/mixerVessel2D/VTK/front/front_1075.vtk"
    Patch     : "/work/job-0.5m10fps.5457544/mixerVessel2D/VTK/back/back_1075.vtk"
    surfScalarFields  : phi phiAlpha
Time: 1.8
    volScalarFields            : p alpha.water p_rgh
    volVectorFields            : U

    Internal  : "/work/job-0.5m10fps.5457544/mixerVessel2D/VTK/mixerVessel2D_1143.vtk"
    Patch     : "/work/job-0.5m10fps.5457544/mixerVessel2D/VTK/rotor/rotor_1143.vtk"
    Patch     : "/work/job-0.5m10fps.5457544/mixerVessel2D/VTK/stator/stator_1143.vtk"
    Patch     : "/work/job-0.5m10fps.5457544/mixerVessel2D/VTK/front/front_1143.vtk"
    Patch     : "/work/job-0.5m10fps.5457544/mixerVessel2D/VTK/back/back_1143.vtk"
    surfScalarFields  : phi phiAlpha
Time: 1.9
    volScalarFields            : p alpha.water p_rgh
    volVectorFields            : U

    Internal  : "/work/job-0.5m10fps.5457544/mixerVessel2D/VTK/mixerVessel2D_1211.vtk"
    Patch     : "/work/job-0.5m10fps.5457544/mixerVessel2D/VTK/rotor/rotor_1211.vtk"
    Patch     : "/work/job-0.5m10fps.5457544/mixerVessel2D/VTK/stator/stator_1211.vtk"
    Patch     : "/work/job-0.5m10fps.5457544/mixerVessel2D/VTK/front/front_1211.vtk"
    Patch     : "/work/job-0.5m10fps.5457544/mixerVessel2D/VTK/back/back_1211.vtk"
    surfScalarFields  : phi phiAlpha
Time: 2
    volScalarFields            : p alpha.water p_rgh
    volVectorFields            : U

    Internal  : "/work/job-0.5m10fps.5457544/mixerVessel2D/VTK/mixerVessel2D_1275.vtk"
    Patch     : "/work/job-0.5m10fps.5457544/mixerVessel2D/VTK/rotor/rotor_1275.vtk"
    Patch     : "/work/job-0.5m10fps.5457544/mixerVessel2D/VTK/stator/stator_1275.vtk"
    Patch     : "/work/job-0.5m10fps.5457544/mixerVessel2D/VTK/front/front_1275.vtk"
    Patch     : "/work/job-0.5m10fps.5457544/mixerVessel2D/VTK/back/back_1275.vtk"
    surfScalarFields  : phi phiAlpha
Time: 2.1
    volScalarFields            : p alpha.water p_rgh
    volVectorFields            : U

    Internal  : "/work/job-0.5m10fps.5457544/mixerVessel2D/VTK/mixerVessel2D_1339.vtk"
    Patch     : "/work/job-0.5m10fps.5457544/mixerVessel2D/VTK/rotor/rotor_1339.vtk"
    Patch     : "/work/job-0.5m10fps.5457544/mixerVessel2D/VTK/stator/stator_1339.vtk"
    Patch     : "/work/job-0.5m10fps.5457544/mixerVessel2D/VTK/front/front_1339.vtk"
    Patch     : "/work/job-0.5m10fps.5457544/mixerVessel2D/VTK/back/back_1339.vtk"
    surfScalarFields  : phi phiAlpha
Time: 2.2
    volScalarFields            : p alpha.water p_rgh
    volVectorFields            : U

    Internal  : "/work/job-0.5m10fps.5457544/mixerVessel2D/VTK/mixerVessel2D_1412.vtk"
    Patch     : "/work/job-0.5m10fps.5457544/mixerVessel2D/VTK/rotor/rotor_1412.vtk"
    Patch     : "/work/job-0.5m10fps.5457544/mixerVessel2D/VTK/stator/stator_1412.vtk"
    Patch     : "/work/job-0.5m10fps.5457544/mixerVessel2D/VTK/front/front_1412.vtk"
    Patch     : "/work/job-0.5m10fps.5457544/mixerVessel2D/VTK/back/back_1412.vtk"
    surfScalarFields  : phi phiAlpha
Time: 2.3
    volScalarFields            : p alpha.water p_rgh
    volVectorFields            : U

    Internal  : "/work/job-0.5m10fps.5457544/mixerVessel2D/VTK/mixerVessel2D_1488.vtk"
    Patch     : "/work/job-0.5m10fps.5457544/mixerVessel2D/VTK/rotor/rotor_1488.vtk"
    Patch     : "/work/job-0.5m10fps.5457544/mixerVessel2D/VTK/stator/stator_1488.vtk"
    Patch     : "/work/job-0.5m10fps.5457544/mixerVessel2D/VTK/front/front_1488.vtk"
    Patch     : "/work/job-0.5m10fps.5457544/mixerVessel2D/VTK/back/back_1488.vtk"
    surfScalarFields  : phi phiAlpha
Time: 2.4
    volScalarFields            : p alpha.water p_rgh
    volVectorFields            : U

    Internal  : "/work/job-0.5m10fps.5457544/mixerVessel2D/VTK/mixerVessel2D_1564.vtk"
    Patch     : "/work/job-0.5m10fps.5457544/mixerVessel2D/VTK/rotor/rotor_1564.vtk"
    Patch     : "/work/job-0.5m10fps.5457544/mixerVessel2D/VTK/stator/stator_1564.vtk"
    Patch     : "/work/job-0.5m10fps.5457544/mixerVessel2D/VTK/front/front_1564.vtk"
    Patch     : "/work/job-0.5m10fps.5457544/mixerVessel2D/VTK/back/back_1564.vtk"
    surfScalarFields  : phi phiAlpha
Time: 2.5
    volScalarFields            : p alpha.water p_rgh
    volVectorFields            : U

    Internal  : "/work/job-0.5m10fps.5457544/mixerVessel2D/VTK/mixerVessel2D_1638.vtk"
    Patch     : "/work/job-0.5m10fps.5457544/mixerVessel2D/VTK/rotor/rotor_1638.vtk"
    Patch     : "/work/job-0.5m10fps.5457544/mixerVessel2D/VTK/stator/stator_1638.vtk"
    Patch     : "/work/job-0.5m10fps.5457544/mixerVessel2D/VTK/front/front_1638.vtk"
    Patch     : "/work/job-0.5m10fps.5457544/mixerVessel2D/VTK/back/back_1638.vtk"
    surfScalarFields  : phi phiAlpha
Time: 2.6
    volScalarFields            : p alpha.water p_rgh
    volVectorFields            : U

    Internal  : "/work/job-0.5m10fps.5457544/mixerVessel2D/VTK/mixerVessel2D_1711.vtk"
    Patch     : "/work/job-0.5m10fps.5457544/mixerVessel2D/VTK/rotor/rotor_1711.vtk"
    Patch     : "/work/job-0.5m10fps.5457544/mixerVessel2D/VTK/stator/stator_1711.vtk"
    Patch     : "/work/job-0.5m10fps.5457544/mixerVessel2D/VTK/front/front_1711.vtk"
    Patch     : "/work/job-0.5m10fps.5457544/mixerVessel2D/VTK/back/back_1711.vtk"
    surfScalarFields  : phi phiAlpha
Time: 2.7
    volScalarFields            : p alpha.water p_rgh
    volVectorFields            : U

    Internal  : "/work/job-0.5m10fps.5457544/mixerVessel2D/VTK/mixerVessel2D_1789.vtk"
    Patch     : "/work/job-0.5m10fps.5457544/mixerVessel2D/VTK/rotor/rotor_1789.vtk"
    Patch     : "/work/job-0.5m10fps.5457544/mixerVessel2D/VTK/stator/stator_1789.vtk"
    Patch     : "/work/job-0.5m10fps.5457544/mixerVessel2D/VTK/front/front_1789.vtk"
    Patch     : "/work/job-0.5m10fps.5457544/mixerVessel2D/VTK/back/back_1789.vtk"
    surfScalarFields  : phi phiAlpha
Time: 2.8
    volScalarFields            : p alpha.water p_rgh
    volVectorFields            : U

    Internal  : "/work/job-0.5m10fps.5457544/mixerVessel2D/VTK/mixerVessel2D_1868.vtk"
    Patch     : "/work/job-0.5m10fps.5457544/mixerVessel2D/VTK/rotor/rotor_1868.vtk"
    Patch     : "/work/job-0.5m10fps.5457544/mixerVessel2D/VTK/stator/stator_1868.vtk"
    Patch     : "/work/job-0.5m10fps.5457544/mixerVessel2D/VTK/front/front_1868.vtk"
    Patch     : "/work/job-0.5m10fps.5457544/mixerVessel2D/VTK/back/back_1868.vtk"
    surfScalarFields  : phi phiAlpha
Time: 2.9
    volScalarFields            : p alpha.water p_rgh
    volVectorFields            : U

    Internal  : "/work/job-0.5m10fps.5457544/mixerVessel2D/VTK/mixerVessel2D_1953.vtk"
    Patch     : "/work/job-0.5m10fps.5457544/mixerVessel2D/VTK/rotor/rotor_1953.vtk"
    Patch     : "/work/job-0.5m10fps.5457544/mixerVessel2D/VTK/stator/stator_1953.vtk"
    Patch     : "/work/job-0.5m10fps.5457544/mixerVessel2D/VTK/front/front_1953.vtk"
    Patch     : "/work/job-0.5m10fps.5457544/mixerVessel2D/VTK/back/back_1953.vtk"
    surfScalarFields  : phi phiAlpha
Time: 3
    volScalarFields            : p alpha.water p_rgh
    volVectorFields            : U

    Internal  : "/work/job-0.5m10fps.5457544/mixerVessel2D/VTK/mixerVessel2D_2032.vtk"
    Patch     : "/work/job-0.5m10fps.5457544/mixerVessel2D/VTK/rotor/rotor_2032.vtk"
    Patch     : "/work/job-0.5m10fps.5457544/mixerVessel2D/VTK/stator/stator_2032.vtk"
    Patch     : "/work/job-0.5m10fps.5457544/mixerVessel2D/VTK/front/front_2032.vtk"
    Patch     : "/work/job-0.5m10fps.5457544/mixerVessel2D/VTK/back/back_2032.vtk"
    surfScalarFields  : phi phiAlpha
Time: 3.1
    volScalarFields            : p alpha.water p_rgh
    volVectorFields            : U

    Internal  : "/work/job-0.5m10fps.5457544/mixerVessel2D/VTK/mixerVessel2D_2111.vtk"
    Patch     : "/work/job-0.5m10fps.5457544/mixerVessel2D/VTK/rotor/rotor_2111.vtk"
    Patch     : "/work/job-0.5m10fps.5457544/mixerVessel2D/VTK/stator/stator_2111.vtk"
    Patch     : "/work/job-0.5m10fps.5457544/mixerVessel2D/VTK/front/front_2111.vtk"
    Patch     : "/work/job-0.5m10fps.5457544/mixerVessel2D/VTK/back/back_2111.vtk"
    surfScalarFields  : phi phiAlpha
Time: 3.2
    volScalarFields            : p alpha.water p_rgh
    volVectorFields            : U

    Internal  : "/work/job-0.5m10fps.5457544/mixerVessel2D/VTK/mixerVessel2D_2195.vtk"
    Patch     : "/work/job-0.5m10fps.5457544/mixerVessel2D/VTK/rotor/rotor_2195.vtk"
    Patch     : "/work/job-0.5m10fps.5457544/mixerVessel2D/VTK/stator/stator_2195.vtk"
    Patch     : "/work/job-0.5m10fps.5457544/mixerVessel2D/VTK/front/front_2195.vtk"
    Patch     : "/work/job-0.5m10fps.5457544/mixerVessel2D/VTK/back/back_2195.vtk"
    surfScalarFields  : phi phiAlpha
Time: 3.3
    volScalarFields            : p alpha.water p_rgh
    volVectorFields            : U

    Internal  : "/work/job-0.5m10fps.5457544/mixerVessel2D/VTK/mixerVessel2D_2277.vtk"
    Patch     : "/work/job-0.5m10fps.5457544/mixerVessel2D/VTK/rotor/rotor_2277.vtk"
    Patch     : "/work/job-0.5m10fps.5457544/mixerVessel2D/VTK/stator/stator_2277.vtk"
    Patch     : "/work/job-0.5m10fps.5457544/mixerVessel2D/VTK/front/front_2277.vtk"
    Patch     : "/work/job-0.5m10fps.5457544/mixerVessel2D/VTK/back/back_2277.vtk"
    surfScalarFields  : phi phiAlpha
Time: 3.4
    volScalarFields            : p alpha.water p_rgh
    volVectorFields            : U

    Internal  : "/work/job-0.5m10fps.5457544/mixerVessel2D/VTK/mixerVessel2D_2360.vtk"
    Patch     : "/work/job-0.5m10fps.5457544/mixerVessel2D/VTK/rotor/rotor_2360.vtk"
    Patch     : "/work/job-0.5m10fps.5457544/mixerVessel2D/VTK/stator/stator_2360.vtk"
    Patch     : "/work/job-0.5m10fps.5457544/mixerVessel2D/VTK/front/front_2360.vtk"
    Patch     : "/work/job-0.5m10fps.5457544/mixerVessel2D/VTK/back/back_2360.vtk"
    surfScalarFields  : phi phiAlpha
Time: 3.5
    volScalarFields            : p alpha.water p_rgh
    volVectorFields            : U

    Internal  : "/work/job-0.5m10fps.5457544/mixerVessel2D/VTK/mixerVessel2D_2445.vtk"
    Patch     : "/work/job-0.5m10fps.5457544/mixerVessel2D/VTK/rotor/rotor_2445.vtk"
    Patch     : "/work/job-0.5m10fps.5457544/mixerVessel2D/VTK/stator/stator_2445.vtk"
    Patch     : "/work/job-0.5m10fps.5457544/mixerVessel2D/VTK/front/front_2445.vtk"
    Patch     : "/work/job-0.5m10fps.5457544/mixerVessel2D/VTK/back/back_2445.vtk"
    surfScalarFields  : phi phiAlpha
Time: 3.6
    volScalarFields            : p alpha.water p_rgh
    volVectorFields            : U

    Internal  : "/work/job-0.5m10fps.5457544/mixerVessel2D/VTK/mixerVessel2D_2533.vtk"
    Patch     : "/work/job-0.5m10fps.5457544/mixerVessel2D/VTK/rotor/rotor_2533.vtk"
    Patch     : "/work/job-0.5m10fps.5457544/mixerVessel2D/VTK/stator/stator_2533.vtk"
    Patch     : "/work/job-0.5m10fps.5457544/mixerVessel2D/VTK/front/front_2533.vtk"
    Patch     : "/work/job-0.5m10fps.5457544/mixerVessel2D/VTK/back/back_2533.vtk"
    surfScalarFields  : phi phiAlpha
Time: 3.7
    volScalarFields            : p alpha.water p_rgh
    volVectorFields            : U

    Internal  : "/work/job-0.5m10fps.5457544/mixerVessel2D/VTK/mixerVessel2D_2619.vtk"
    Patch     : "/work/job-0.5m10fps.5457544/mixerVessel2D/VTK/rotor/rotor_2619.vtk"
    Patch     : "/work/job-0.5m10fps.5457544/mixerVessel2D/VTK/stator/stator_2619.vtk"
    Patch     : "/work/job-0.5m10fps.5457544/mixerVessel2D/VTK/front/front_2619.vtk"
    Patch     : "/work/job-0.5m10fps.5457544/mixerVessel2D/VTK/back/back_2619.vtk"
    surfScalarFields  : phi phiAlpha
Time: 3.8
    volScalarFields            : p alpha.water p_rgh
    volVectorFields            : U

    Internal  : "/work/job-0.5m10fps.5457544/mixerVessel2D/VTK/mixerVessel2D_2715.vtk"
    Patch     : "/work/job-0.5m10fps.5457544/mixerVessel2D/VTK/rotor/rotor_2715.vtk"
    Patch     : "/work/job-0.5m10fps.5457544/mixerVessel2D/VTK/stator/stator_2715.vtk"
    Patch     : "/work/job-0.5m10fps.5457544/mixerVessel2D/VTK/front/front_2715.vtk"
    Patch     : "/work/job-0.5m10fps.5457544/mixerVessel2D/VTK/back/back_2715.vtk"
    surfScalarFields  : phi phiAlpha
Time: 3.9
    volScalarFields            : p alpha.water p_rgh
    volVectorFields            : U

    Internal  : "/work/job-0.5m10fps.5457544/mixerVessel2D/VTK/mixerVessel2D_2805.vtk"
    Patch     : "/work/job-0.5m10fps.5457544/mixerVessel2D/VTK/rotor/rotor_2805.vtk"
    Patch     : "/work/job-0.5m10fps.5457544/mixerVessel2D/VTK/stator/stator_2805.vtk"
    Patch     : "/work/job-0.5m10fps.5457544/mixerVessel2D/VTK/front/front_2805.vtk"
    Patch     : "/work/job-0.5m10fps.5457544/mixerVessel2D/VTK/back/back_2805.vtk"
    surfScalarFields  : phi phiAlpha
Time: 4
    volScalarFields            : p alpha.water p_rgh
    volVectorFields            : U

    Internal  : "/work/job-0.5m10fps.5457544/mixerVessel2D/VTK/mixerVessel2D_2896.vtk"
    Patch     : "/work/job-0.5m10fps.5457544/mixerVessel2D/VTK/rotor/rotor_2896.vtk"
    Patch     : "/work/job-0.5m10fps.5457544/mixerVessel2D/VTK/stator/stator_2896.vtk"
    Patch     : "/work/job-0.5m10fps.5457544/mixerVessel2D/VTK/front/front_2896.vtk"
    Patch     : "/work/job-0.5m10fps.5457544/mixerVessel2D/VTK/back/back_2896.vtk"
    surfScalarFields  : phi phiAlpha
End

