/*---------------------------------------------------------------------------*\
| =========                 |                                                 |
| \\      /  F ield         | OpenFOAM: The Open Source CFD Toolbox           |
|  \\    /   O peration     | Version:  2.4.0                                 |
|   \\  /    A nd           | Web:      www.OpenFOAM.org                      |
|    \\/     M anipulation  |                                                 |
\*---------------------------------------------------------------------------*/
Build  : 2.4.0-dcea1e13ff76
Exec   : interFoam
Date   : Oct 28 2016
Time   : 13:06:45
Host   : "o05-041"
PID    : 23584
Case   : /work/job-0.5m10fps.5457544/mixerVessel2D
nProcs : 1
fileModificationChecking : Monitoring run-time modified files using timeStampMaster
allowSystemOperations : Allowing user-supplied system call operations

// * * * * * * * * * * * * * * * * * * * * * * * * * * * * * * * * * * * * * //
Create time

Create mesh for time = 0


PIMPLE: Operating solver in PISO mode

Reading field p_rgh

Reading field U

Reading/calculating face flux field phi

Reading transportProperties

Selecting incompressible transport model Newtonian
Selecting incompressible transport model Newtonian
Selecting turbulence model type laminar

Reading g
Calculating field g.h

Creating finite volume options from "constant/fvOptions"

Selecting finite volume options model type MRFSource
    Source: MRF1
    - applying source for all time
    - selecting cells using cellZone rotor
    - selected 1536 cell(s) with volume 0.0125574

time step continuity errors : sum local = 0, global = 0, cumulative = 0
DICPCG:  Solving for pcorr, Initial residual = 0, Final residual = 0, No Iterations 0
time step continuity errors : sum local = 0, global = 0, cumulative = 0
Courant Number mean: 0 max: 0

Starting time loop

Courant Number mean: 0 max: 0
Interface Courant Number mean: 0 max: 0
deltaT = 0.00119048
Time = 0.00119048

PIMPLE: iteration 1
MULES: Solving for alpha.water
Phase-1 volume fraction = 0.25  Min(alpha.water) = 0  Max(alpha.water) = 1
MULES: Solving for alpha.water
Phase-1 volume fraction = 0.25  Min(alpha.water) = 0  Max(alpha.water) = 1
DICPCG:  Solving for p_rgh, Initial residual = 1, Final residual = 0.0492926, No Iterations 61
time step continuity errors : sum local = 0.000103747, global = -4.11208e-20, cumulative = -4.11208e-20
DICPCG:  Solving for p_rgh, Initial residual = 0.0221126, Final residual = 0.000935628, No Iterations 31
time step continuity errors : sum local = 5.08937e-06, global = 5.14069e-20, cumulative = 1.02861e-20
DICPCG:  Solving for p_rgh, Initial residual = 0.00108708, Final residual = 6.98244e-08, No Iterations 91
time step continuity errors : sum local = 3.30057e-10, global = -3.4037e-20, cumulative = -2.37509e-20
ExecutionTime = 0.45 s  ClockTime = 0 s

Courant Number mean: 0.0336622 max: 0.348677
Interface Courant Number mean: 0 max: 0
deltaT = 0.00135356
Time = 0.00254403

PIMPLE: iteration 1
MULES: Solving for alpha.water
Phase-1 volume fraction = 0.25  Min(alpha.water) = 0  Max(alpha.water) = 1
MULES: Solving for alpha.water
Phase-1 volume fraction = 0.25  Min(alpha.water) = 0  Max(alpha.water) = 1
DICPCG:  Solving for p_rgh, Initial residual = 0.639476, Final residual = 0.0284585, No Iterations 60
time step continuity errors : sum local = 0.000146813, global = 1.07621e-20, cumulative = -1.29888e-20
DICPCG:  Solving for p_rgh, Initial residual = 0.0555728, Final residual = 0.00241538, No Iterations 29
time step continuity errors : sum local = 9.49586e-06, global = 4.54039e-21, cumulative = -8.4484e-21
DICPCG:  Solving for p_rgh, Initial residual = 0.00502475, Final residual = 9.84698e-08, No Iterations 95
time step continuity errors : sum local = 3.41084e-10, global = 2.77156e-20, cumulative = 1.92672e-20
ExecutionTime = 0.54 s  ClockTime = 0 s

Courant Number mean: 0.0385464 max: 0.426086
Interface Courant Number mean: 0.000738426 max: 0.411285
deltaT = 0.00149932
Time = 0.00404335

PIMPLE: iteration 1
MULES: Solving for alpha.water
Phase-1 volume fraction = 0.25  Min(alpha.water) = 0  Max(alpha.water) = 1
MULES: Solving for alpha.water
Phase-1 volume fraction = 0.25  Min(alpha.water) = 0  Max(alpha.water) = 1
DICPCG:  Solving for p_rgh, Initial residual = 0.33675, Final residual = 0.00886716, No Iterations 10
time step continuity errors : sum local = 3.22438e-05, global = -7.33219e-22, cumulative = 1.8534e-20
DICPCG:  Solving for p_rgh, Initial residual = 0.0284932, Final residual = 0.00133115, No Iterations 23
time step continuity errors : sum local = 4.03728e-06, global = -3.76765e-20, cumulative = -1.91425e-20
DICPCG:  Solving for p_rgh, Initial residual = 0.00460921, Final residual = 5.4976e-08, No Iterations 95
time step continuity errors : sum local = 1.63001e-10, global = 1.04699e-19, cumulative = 8.55561e-20
ExecutionTime = 0.61 s  ClockTime = 1 s

Courant Number mean: 0.0425484 max: 0.482955
Interface Courant Number mean: 0.000806969 max: 0.44996
deltaT = 0.00154769
Time = 0.00559104

PIMPLE: iteration 1
MULES: Solving for alpha.water
Phase-1 volume fraction = 0.25  Min(alpha.water) = 0  Max(alpha.water) = 1
MULES: Solving for alpha.water
Phase-1 volume fraction = 0.25  Min(alpha.water) = 0  Max(alpha.water) = 1
DICPCG:  Solving for p_rgh, Initial residual = 0.171723, Final residual = 0.00813283, No Iterations 8
time step continuity errors : sum local = 2.48574e-05, global = -3.94182e-20, cumulative = 4.61379e-20
DICPCG:  Solving for p_rgh, Initial residual = 0.0232646, Final residual = 0.00104695, No Iterations 9
time step continuity errors : sum local = 3.20069e-06, global = 3.57578e-20, cumulative = 8.18957e-20
DICPCG:  Solving for p_rgh, Initial residual = 0.00424941, Final residual = 8.57982e-08, No Iterations 92
time step continuity errors : sum local = 2.44664e-10, global = 1.21297e-19, cumulative = 2.03192e-19
ExecutionTime = 0.68 s  ClockTime = 1 s

Courant Number mean: 0.0438028 max: 0.502789
Interface Courant Number mean: 0.00121516 max: 0.457564
deltaT = 0.00152273
Time = 0.00711377

PIMPLE: iteration 1
MULES: Solving for alpha.water
Phase-1 volume fraction = 0.25  Min(alpha.water) = 0  Max(alpha.water) = 1
MULES: Solving for alpha.water
Phase-1 volume fraction = 0.25  Min(alpha.water) = 0  Max(alpha.water) = 1
DICPCG:  Solving for p_rgh, Initial residual = 0.106143, Final residual = 0.0047213, No Iterations 2
time step continuity errors : sum local = 1.29372e-05, global = 5.09677e-20, cumulative = 2.5416e-19
DICPCG:  Solving for p_rgh, Initial residual = 0.0161033, Final residual = 0.000719682, No Iterations 19
time step continuity errors : sum local = 1.96848e-06, global = -2.55486e-20, cumulative = 2.28612e-19
DICPCG:  Solving for p_rgh, Initial residual = 0.00336227, Final residual = 7.731e-08, No Iterations 91
time step continuity errors : sum local = 2.08475e-10, global = 4.32424e-20, cumulative = 2.71854e-19
ExecutionTime = 0.76 s  ClockTime = 1 s

Courant Number mean: 0.0429707 max: 0.49653
Interface Courant Number mean: 0.00127695 max: 0.336832
deltaT = 0.00152273
Time = 0.00863649

PIMPLE: iteration 1
MULES: Solving for alpha.water
Phase-1 volume fraction = 0.25  Min(alpha.water) = 0  Max(alpha.water) = 1
MULES: Solving for alpha.water
Phase-1 volume fraction = 0.25  Min(alpha.water) = 0  Max(alpha.water) = 1
DICPCG:  Solving for p_rgh, Initial residual = 0.0866834, Final residual = 0.00358926, No Iterations 2
time step continuity errors : sum local = 9.58775e-06, global = 9.52731e-20, cumulative = 3.67127e-19
DICPCG:  Solving for p_rgh, Initial residual = 0.0138262, Final residual = 0.000584262, No Iterations 20
time step continuity errors : sum local = 1.60369e-06, global = 7.45038e-20, cumulative = 4.41631e-19
DICPCG:  Solving for p_rgh, Initial residual = 0.00291098, Final residual = 6.28809e-08, No Iterations 89
time step continuity errors : sum local = 1.65521e-10, global = 2.6855e-21, cumulative = 4.44316e-19
ExecutionTime = 0.83 s  ClockTime = 1 s

Courant Number mean: 0.0428446 max: 0.496368
Interface Courant Number mean: 0.00126929 max: 0.341623
deltaT = 0.00152273
Time = 0.0101592

PIMPLE: iteration 1
MULES: Solving for alpha.water
Phase-1 volume fraction = 0.25  Min(alpha.water) = 0  Max(alpha.water) = 1
MULES: Solving for alpha.water
Phase-1 volume fraction = 0.25  Min(alpha.water) = 0  Max(alpha.water) = 1
DICPCG:  Solving for p_rgh, Initial residual = 0.0710108, Final residual = 0.00291161, No Iterations 2
time step continuity errors : sum local = 7.62458e-06, global = -1.32007e-20, cumulative = 4.31116e-19
DICPCG:  Solving for p_rgh, Initial residual = 0.0124529, Final residual = 0.000553699, No Iterations 14
time step continuity errors : sum local = 1.58575e-06, global = -6.65618e-20, cumulative = 3.64554e-19
DICPCG:  Solving for p_rgh, Initial residual = 0.00265363, Final residual = 8.48236e-08, No Iterations 90
time step continuity errors : sum local = 2.19198e-10, global = -4.89477e-20, cumulative = 3.15606e-19
ExecutionTime = 0.9 s  ClockTime = 1 s

Courant Number mean: 0.0427332 max: 0.494839
Interface Courant Number mean: 0.00126757 max: 0.346909
deltaT = 0.00152273
Time = 0.0116819

PIMPLE: iteration 1
MULES: Solving for alpha.water
Phase-1 volume fraction = 0.25  Min(alpha.water) = 0  Max(alpha.water) = 1
MULES: Solving for alpha.water
Phase-1 volume fraction = 0.25  Min(alpha.water) = 0  Max(alpha.water) = 1
DICPCG:  Solving for p_rgh, Initial residual = 0.0595863, Final residual = 0.00189028, No Iterations 2
time step continuity errors : sum local = 4.86056e-06, global = 4.65629e-21, cumulative = 3.20262e-19
DICPCG:  Solving for p_rgh, Initial residual = 0.0116464, Final residual = 0.000549154, No Iterations 14
time step continuity errors : sum local = 1.42456e-06, global = 2.5341e-20, cumulative = 3.45603e-19
DICPCG:  Solving for p_rgh, Initial residual = 0.0025013, Final residual = 7.86196e-08, No Iterations 91
time step continuity errors : sum local = 1.99308e-10, global = 8.27529e-21, cumulative = 3.53879e-19
ExecutionTime = 0.97 s  ClockTime = 1 s

Courant Number mean: 0.0426457 max: 0.493512
Interface Courant Number mean: 0.00115069 max: 0.351754
deltaT = 0.00152273
Time = 0.0132047

PIMPLE: iteration 1
MULES: Solving for alpha.water
Phase-1 volume fraction = 0.25  Min(alpha.water) = 0  Max(alpha.water) = 1
MULES: Solving for alpha.water
Phase-1 volume fraction = 0.25  Min(alpha.water) = 0  Max(alpha.water) = 1
DICPCG:  Solving for p_rgh, Initial residual = 0.0604701, Final residual = 0.0029979, No Iterations 2
time step continuity errors : sum local = 7.49529e-06, global = -4.60386e-20, cumulative = 3.0784e-19
DICPCG:  Solving for p_rgh, Initial residual = 0.0124694, Final residual = 0.000600725, No Iterations 27
time step continuity errors : sum local = 1.59425e-06, global = -1.06714e-20, cumulative = 2.97169e-19
DICPCG:  Solving for p_rgh, Initial residual = 0.00260163, Final residual = 7.94201e-08, No Iterations 91
time step continuity errors : sum local = 1.95097e-10, global = 1.67105e-20, cumulative = 3.13879e-19
ExecutionTime = 1.04 s  ClockTime = 1 s

Courant Number mean: 0.0425743 max: 0.49255
Interface Courant Number mean: 0.00141345 max: 0.356147
deltaT = 0.00152273
Time = 0.0147274

PIMPLE: iteration 1
MULES: Solving for alpha.water
Phase-1 volume fraction = 0.25  Min(alpha.water) = 0  Max(alpha.water) = 1
MULES: Solving for alpha.water
Phase-1 volume fraction = 0.25  Min(alpha.water) = 0  Max(alpha.water) = 1
DICPCG:  Solving for p_rgh, Initial residual = 0.0524495, Final residual = 0.00209411, No Iterations 2
time step continuity errors : sum local = 5.0647e-06, global = 4.63061e-20, cumulative = 3.60185e-19
DICPCG:  Solving for p_rgh, Initial residual = 0.0120138, Final residual = 0.000572902, No Iterations 11
time step continuity errors : sum local = 1.45564e-06, global = -5.86056e-20, cumulative = 3.0158e-19
DICPCG:  Solving for p_rgh, Initial residual = 0.00249081, Final residual = 7.80285e-08, No Iterations 92
time step continuity errors : sum local = 1.84808e-10, global = -6.79024e-20, cumulative = 2.33677e-19
ExecutionTime = 1.11 s  ClockTime = 1 s

Courant Number mean: 0.0425396 max: 0.491812
Interface Courant Number mean: 0.00143506 max: 0.338625
deltaT = 0.00152273
Time = 0.0162501

PIMPLE: iteration 1
MULES: Solving for alpha.water
Phase-1 volume fraction = 0.25  Min(alpha.water) = 0  Max(alpha.water) = 1
MULES: Solving for alpha.water
Phase-1 volume fraction = 0.25  Min(alpha.water) = 0  Max(alpha.water) = 1
DICPCG:  Solving for p_rgh, Initial residual = 0.0520305, Final residual = 0.00182781, No Iterations 2
time step continuity errors : sum local = 4.28199e-06, global = 5.92371e-20, cumulative = 2.92915e-19
DICPCG:  Solving for p_rgh, Initial residual = 0.0121345, Final residual = 0.000478143, No Iterations 9
time step continuity errors : sum local = 1.14007e-06, global = 2.7039e-20, cumulative = 3.19954e-19
DICPCG:  Solving for p_rgh, Initial residual = 0.00237667, Final residual = 7.32138e-08, No Iterations 92
time step continuity errors : sum local = 1.68609e-10, global = -2.52635e-22, cumulative = 3.19701e-19
ExecutionTime = 1.18 s  ClockTime = 1 s

Courant Number mean: 0.042519 max: 0.490965
Interface Courant Number mean: 0.00155257 max: 0.343166
deltaT = 0.00152273
Time = 0.0177728

PIMPLE: iteration 1
MULES: Solving for alpha.water
Phase-1 volume fraction = 0.25  Min(alpha.water) = 0  Max(alpha.water) = 1
MULES: Solving for alpha.water
Phase-1 volume fraction = 0.25  Min(alpha.water) = 0  Max(alpha.water) = 1
DICPCG:  Solving for p_rgh, Initial residual = 0.0569229, Final residual = 0.00195037, No Iterations 2
time step continuity errors : sum local = 4.40317e-06, global = -2.71888e-20, cumulative = 2.92512e-19
DICPCG:  Solving for p_rgh, Initial residual = 0.0125359, Final residual = 0.000561021, No Iterations 8
time step continuity errors : sum local = 1.25754e-06, global = 2.01571e-20, cumulative = 3.12669e-19
DICPCG:  Solving for p_rgh, Initial residual = 0.00246489, Final residual = 9.70999e-08, No Iterations 91
time step continuity errors : sum local = 2.14723e-10, global = -2.97557e-20, cumulative = 2.82914e-19
ExecutionTime = 1.25 s  ClockTime = 1 s

Courant Number mean: 0.0425242 max: 0.489594
Interface Courant Number mean: 0.00156829 max: 0.345382
deltaT = 0.00155146
Time = 0.0193243

PIMPLE: iteration 1
MULES: Solving for alpha.water
Phase-1 volume fraction = 0.25  Min(alpha.water) = 0  Max(alpha.water) = 1
MULES: Solving for alpha.water
Phase-1 volume fraction = 0.25  Min(alpha.water) = 0  Max(alpha.water) = 1
DICPCG:  Solving for p_rgh, Initial residual = 0.0525959, Final residual = 0.00169103, No Iterations 2
time step continuity errors : sum local = 3.80947e-06, global = 5.62843e-20, cumulative = 3.39198e-19
DICPCG:  Solving for p_rgh, Initial residual = 0.0132098, Final residual = 0.00059391, No Iterations 7
time step continuity errors : sum local = 1.33111e-06, global = -3.593e-21, cumulative = 3.35605e-19
DICPCG:  Solving for p_rgh, Initial residual = 0.00252852, Final residual = 9.42722e-08, No Iterations 92
time step continuity errors : sum local = 2.08119e-10, global = 8.13017e-20, cumulative = 4.16907e-19
ExecutionTime = 1.32 s  ClockTime = 1 s

Courant Number mean: 0.0433625 max: 0.495982
Interface Courant Number mean: 0.0015848 max: 0.352148
deltaT = 0.00155146
Time = 0.0208758

PIMPLE: iteration 1
MULES: Solving for alpha.water
Phase-1 volume fraction = 0.25  Min(alpha.water) = 0  Max(alpha.water) = 1
MULES: Solving for alpha.water
Phase-1 volume fraction = 0.25  Min(alpha.water) = 0  Max(alpha.water) = 1
DICPCG:  Solving for p_rgh, Initial residual = 0.0495582, Final residual = 0.00209058, No Iterations 2
time step continuity errors : sum local = 4.57131e-06, global = 4.63993e-20, cumulative = 4.63306e-19
DICPCG:  Solving for p_rgh, Initial residual = 0.0130124, Final residual = 0.000554184, No Iterations 6
time step continuity errors : sum local = 1.20937e-06, global = 7.71359e-21, cumulative = 4.71019e-19
DICPCG:  Solving for p_rgh, Initial residual = 0.00248526, Final residual = 9.06499e-08, No Iterations 92
time step continuity errors : sum local = 1.96345e-10, global = 3.35997e-20, cumulative = 5.04619e-19
ExecutionTime = 1.39 s  ClockTime = 1 s

Courant Number mean: 0.0434305 max: 0.491651
Interface Courant Number mean: 0.00164883 max: 0.360874
deltaT = 0.00155146
Time = 0.0224272

PIMPLE: iteration 1
MULES: Solving for alpha.water
Phase-1 volume fraction = 0.25  Min(alpha.water) = 0  Max(alpha.water) = 1
MULES: Solving for alpha.water
Phase-1 volume fraction = 0.25  Min(alpha.water) = 0  Max(alpha.water) = 1
DICPCG:  Solving for p_rgh, Initial residual = 0.0524112, Final residual = 0.00185862, No Iterations 2
time step continuity errors : sum local = 3.97779e-06, global = 9.3215e-20, cumulative = 5.97834e-19
DICPCG:  Solving for p_rgh, Initial residual = 0.0128108, Final residual = 0.000624454, No Iterations 8
time step continuity errors : sum local = 1.3727e-06, global = 4.31072e-20, cumulative = 6.40941e-19
DICPCG:  Solving for p_rgh, Initial residual = 0.00248441, Final residual = 8.71896e-08, No Iterations 92
time step continuity errors : sum local = 1.843e-10, global = 7.09346e-20, cumulative = 7.11876e-19
ExecutionTime = 1.46 s  ClockTime = 1 s

Courant Number mean: 0.0435071 max: 0.486684
Interface Courant Number mean: 0.00194463 max: 0.34785
deltaT = 0.00158312
Time = 0.0240103

PIMPLE: iteration 1
MULES: Solving for alpha.water
Phase-1 volume fraction = 0.25  Min(alpha.water) = 0  Max(alpha.water) = 1
MULES: Solving for alpha.water
Phase-1 volume fraction = 0.25  Min(alpha.water) = 0  Max(alpha.water) = 1
DICPCG:  Solving for p_rgh, Initial residual = 0.0523571, Final residual = 0.00194107, No Iterations 2
time step continuity errors : sum local = 4.20308e-06, global = -7.99292e-20, cumulative = 6.31947e-19
DICPCG:  Solving for p_rgh, Initial residual = 0.0129692, Final residual = 0.00064773, No Iterations 7
time step continuity errors : sum local = 1.43166e-06, global = -5.77311e-20, cumulative = 5.74215e-19
DICPCG:  Solving for p_rgh, Initial residual = 0.00250503, Final residual = 7.79538e-08, No Iterations 94
time step continuity errors : sum local = 1.65238e-10, global = -7.03466e-20, cumulative = 5.03869e-19
ExecutionTime = 1.53 s  ClockTime = 1 s

Courant Number mean: 0.0445016 max: 0.490482
Interface Courant Number mean: 0.00203752 max: 0.355294
deltaT = 0.00158312
Time = 0.0255934

PIMPLE: iteration 1
MULES: Solving for alpha.water
Phase-1 volume fraction = 0.25  Min(alpha.water) = 0  Max(alpha.water) = 1
MULES: Solving for alpha.water
Phase-1 volume fraction = 0.25  Min(alpha.water) = 0  Max(alpha.water) = 1
DICPCG:  Solving for p_rgh, Initial residual = 0.0438024, Final residual = 0.00173087, No Iterations 2
time step continuity errors : sum local = 3.66488e-06, global = 8.9996e-20, cumulative = 5.93865e-19
DICPCG:  Solving for p_rgh, Initial residual = 0.0126032, Final residual = 0.000607438, No Iterations 10
time step continuity errors : sum local = 1.30075e-06, global = -8.00249e-20, cumulative = 5.1384e-19
DICPCG:  Solving for p_rgh, Initial residual = 0.00233629, Final residual = 7.63653e-08, No Iterations 88
time step continuity errors : sum local = 1.60415e-10, global = -8.04153e-20, cumulative = 4.33425e-19
ExecutionTime = 1.6 s  ClockTime = 2 s

Courant Number mean: 0.0446235 max: 0.48305
Interface Courant Number mean: 0.0020259 max: 0.360979
deltaT = 0.00161753
Time = 0.027211

PIMPLE: iteration 1
MULES: Solving for alpha.water
Phase-1 volume fraction = 0.25  Min(alpha.water) = 0  Max(alpha.water) = 1
MULES: Solving for alpha.water
Phase-1 volume fraction = 0.25  Min(alpha.water) = 0  Max(alpha.water) = 1
DICPCG:  Solving for p_rgh, Initial residual = 0.0456025, Final residual = 0.00198694, No Iterations 2
time step continuity errors : sum local = 4.31343e-06, global = -3.74306e-20, cumulative = 3.95994e-19
DICPCG:  Solving for p_rgh, Initial residual = 0.0130433, Final residual = 0.00055654, No Iterations 10
time step continuity errors : sum local = 1.24019e-06, global = 1.83573e-20, cumulative = 4.14351e-19
DICPCG:  Solving for p_rgh, Initial residual = 0.00240517, Final residual = 8.4345e-08, No Iterations 88
time step continuity errors : sum local = 1.79877e-10, global = 4.95339e-20, cumulative = 4.63885e-19
ExecutionTime = 1.67 s  ClockTime = 2 s

Courant Number mean: 0.0457224 max: 0.484989
Interface Courant Number mean: 0.00204896 max: 0.374562
deltaT = 0.0016543
Time = 0.0288653

PIMPLE: iteration 1
MULES: Solving for alpha.water
Phase-1 volume fraction = 0.25  Min(alpha.water) = 0  Max(alpha.water) = 1
MULES: Solving for alpha.water
Phase-1 volume fraction = 0.25  Min(alpha.water) = -4.85175e-09  Max(alpha.water) = 1
DICPCG:  Solving for p_rgh, Initial residual = 0.0495268, Final residual = 0.00228246, No Iterations 2
time step continuity errors : sum local = 5.03496e-06, global = -1.19459e-19, cumulative = 3.44427e-19
DICPCG:  Solving for p_rgh, Initial residual = 0.0140013, Final residual = 0.000600726, No Iterations 7
time step continuity errors : sum local = 1.32838e-06, global = 2.95101e-20, cumulative = 3.73937e-19
DICPCG:  Solving for p_rgh, Initial residual = 0.00258749, Final residual = 7.97108e-08, No Iterations 92
time step continuity errors : sum local = 1.73785e-10, global = 6.34782e-21, cumulative = 3.80285e-19
ExecutionTime = 1.74 s  ClockTime = 2 s

Courant Number mean: 0.0468933 max: 0.485277
Interface Courant Number mean: 0.00197675 max: 0.38716
deltaT = 0.00169368
Time = 0.030559

PIMPLE: iteration 1
MULES: Solving for alpha.water
Phase-1 volume fraction = 0.25  Min(alpha.water) = -4.34626e-09  Max(alpha.water) = 1
MULES: Solving for alpha.water
Phase-1 volume fraction = 0.25  Min(alpha.water) = -3.89344e-09  Max(alpha.water) = 1
DICPCG:  Solving for p_rgh, Initial residual = 0.0425328, Final residual = 0.0020492, No Iterations 2
time step continuity errors : sum local = 4.64403e-06, global = -3.69531e-20, cumulative = 3.43331e-19
DICPCG:  Solving for p_rgh, Initial residual = 0.0146768, Final residual = 0.000640518, No Iterations 9
time step continuity errors : sum local = 1.46696e-06, global = -5.55225e-20, cumulative = 2.87809e-19
DICPCG:  Solving for p_rgh, Initial residual = 0.00279165, Final residual = 8.37393e-08, No Iterations 91
time step continuity errors : sum local = 1.8841e-10, global = -8.36545e-20, cumulative = 2.04154e-19
ExecutionTime = 1.81 s  ClockTime = 2 s

Courant Number mean: 0.0481464 max: 0.484566
Interface Courant Number mean: 0.00212425 max: 0.397788
deltaT = 0.00173603
Time = 0.032295

PIMPLE: iteration 1
MULES: Solving for alpha.water
Phase-1 volume fraction = 0.25  Min(alpha.water) = -3.48719e-09  Max(alpha.water) = 1
MULES: Solving for alpha.water
Phase-1 volume fraction = 0.25  Min(alpha.water) = -3.12333e-09  Max(alpha.water) = 1
DICPCG:  Solving for p_rgh, Initial residual = 0.0460203, Final residual = 0.00213597, No Iterations 2
time step continuity errors : sum local = 4.9912e-06, global = 1.71649e-20, cumulative = 2.21319e-19
DICPCG:  Solving for p_rgh, Initial residual = 0.0155454, Final residual = 0.000760048, No Iterations 4
time step continuity errors : sum local = 1.75999e-06, global = 1.68136e-20, cumulative = 2.38133e-19
DICPCG:  Solving for p_rgh, Initial residual = 0.00305916, Final residual = 7.54831e-08, No Iterations 94
time step continuity errors : sum local = 1.73404e-10, global = 2.90658e-20, cumulative = 2.67199e-19
ExecutionTime = 1.88 s  ClockTime = 2 s

Courant Number mean: 0.0495135 max: 0.483305
Interface Courant Number mean: 0.00263845 max: 0.406557
deltaT = 0.00178171
Time = 0.0340767

PIMPLE: iteration 1
MULES: Solving for alpha.water
Phase-1 volume fraction = 0.25  Min(alpha.water) = -2.79751e-09  Max(alpha.water) = 1
MULES: Solving for alpha.water
Phase-1 volume fraction = 0.25  Min(alpha.water) = -2.50568e-09  Max(alpha.water) = 1
DICPCG:  Solving for p_rgh, Initial residual = 0.0438428, Final residual = 0.00217718, No Iterations 2
time step continuity errors : sum local = 5.27286e-06, global = -1.0099e-19, cumulative = 1.66209e-19
DICPCG:  Solving for p_rgh, Initial residual = 0.0154986, Final residual = 0.000737583, No Iterations 4
time step continuity errors : sum local = 1.78014e-06, global = -8.06593e-21, cumulative = 1.58143e-19
DICPCG:  Solving for p_rgh, Initial residual = 0.00317674, Final residual = 8.47619e-08, No Iterations 94
time step continuity errors : sum local = 2.04118e-10, global = -2.18236e-20, cumulative = 1.36319e-19
ExecutionTime = 1.95 s  ClockTime = 2 s

Courant Number mean: 0.0509782 max: 0.48165
Interface Courant Number mean: 0.00286646 max: 0.41307
deltaT = 0.0018312
Time = 0.0359079

PIMPLE: iteration 1
MULES: Solving for alpha.water
Phase-1 volume fraction = 0.25  Min(alpha.water) = -2.24499e-09  Max(alpha.water) = 1
MULES: Solving for alpha.water
Phase-1 volume fraction = 0.25  Min(alpha.water) = -2.01141e-09  Max(alpha.water) = 1
DICPCG:  Solving for p_rgh, Initial residual = 0.0456123, Final residual = 0.00180728, No Iterations 3
time step continuity errors : sum local = 4.57408e-06, global = 3.07475e-20, cumulative = 1.67067e-19
DICPCG:  Solving for p_rgh, Initial residual = 0.0155187, Final residual = 0.000603914, No Iterations 9
time step continuity errors : sum local = 1.52101e-06, global = -3.73809e-20, cumulative = 1.29686e-19
DICPCG:  Solving for p_rgh, Initial residual = 0.0032518, Final residual = 7.89949e-08, No Iterations 93
time step continuity errors : sum local = 1.97641e-10, global = -5.28009e-20, cumulative = 7.68849e-20
ExecutionTime = 2.02 s  ClockTime = 2 s

Courant Number mean: 0.0525711 max: 0.479613
Interface Courant Number mean: 0.00281974 max: 0.423283
deltaT = 0.00188506
Time = 0.037793

PIMPLE: iteration 1
MULES: Solving for alpha.water
Phase-1 volume fraction = 0.25  Min(alpha.water) = -1.80324e-09  Max(alpha.water) = 1
MULES: Solving for alpha.water
Phase-1 volume fraction = 0.25  Min(alpha.water) = -1.6166e-09  Max(alpha.water) = 1
DICPCG:  Solving for p_rgh, Initial residual = 0.0429635, Final residual = 0.00166374, No Iterations 3
time step continuity errors : sum local = 4.38212e-06, global = -5.31129e-21, cumulative = 7.15736e-20
DICPCG:  Solving for p_rgh, Initial residual = 0.0157804, Final residual = 0.000699486, No Iterations 9
time step continuity errors : sum local = 1.82996e-06, global = 1.85802e-19, cumulative = 2.57376e-19
DICPCG:  Solving for p_rgh, Initial residual = 0.00347893, Final residual = 9.60803e-08, No Iterations 87
time step continuity errors : sum local = 2.49076e-10, global = 4.3732e-21, cumulative = 2.61749e-19
ExecutionTime = 2.09 s  ClockTime = 2 s

Courant Number mean: 0.054314 max: 0.477547
Interface Courant Number mean: 0.00310398 max: 0.437054
deltaT = 0.00194397
Time = 0.0397369

PIMPLE: iteration 1
MULES: Solving for alpha.water
Phase-1 volume fraction = 0.25  Min(alpha.water) = -1.45035e-09  Max(alpha.water) = 1
MULES: Solving for alpha.water
Phase-1 volume fraction = 0.25  Min(alpha.water) = -2.7631e-10  Max(alpha.water) = 1
DICPCG:  Solving for p_rgh, Initial residual = 0.0442972, Final residual = 0.00157316, No Iterations 3
time step continuity errors : sum local = 4.30824e-06, global = 2.01033e-20, cumulative = 2.81852e-19
DICPCG:  Solving for p_rgh, Initial residual = 0.0158604, Final residual = 0.000737212, No Iterations 7
time step continuity errors : sum local = 2.02747e-06, global = 4.4654e-20, cumulative = 3.26506e-19
DICPCG:  Solving for p_rgh, Initial residual = 0.00368635, Final residual = 9.48711e-08, No Iterations 78
time step continuity errors : sum local = 2.56169e-10, global = 3.22557e-21, cumulative = 3.29732e-19
ExecutionTime = 2.16 s  ClockTime = 2 s

Courant Number mean: 0.0562269 max: 0.475609
Interface Courant Number mean: 0.0031748 max: 0.449053
deltaT = 0.00200877
Time = 0.0417457

PIMPLE: iteration 1
MULES: Solving for alpha.water
Phase-1 volume fraction = 0.25  Min(alpha.water) = -2.39805e-10  Max(alpha.water) = 1
MULES: Solving for alpha.water
Phase-1 volume fraction = 0.25  Min(alpha.water) = -2.08124e-10  Max(alpha.water) = 1
DICPCG:  Solving for p_rgh, Initial residual = 0.0505796, Final residual = 0.00213866, No Iterations 3
time step continuity errors : sum local = 6.09232e-06, global = 1.82885e-19, cumulative = 5.12616e-19
DICPCG:  Solving for p_rgh, Initial residual = 0.0169317, Final residual = 0.000686355, No Iterations 14
time step continuity errors : sum local = 1.93854e-06, global = 8.36133e-21, cumulative = 5.20978e-19
DICPCG:  Solving for p_rgh, Initial residual = 0.00394069, Final residual = 8.93214e-08, No Iterations 91
time step continuity errors : sum local = 2.49025e-10, global = 2.34633e-20, cumulative = 5.44441e-19
ExecutionTime = 2.23 s  ClockTime = 2 s

Courant Number mean: 0.0583477 max: 0.474319
Interface Courant Number mean: 0.00366251 max: 0.459358
deltaT = 0.00208051
Time = 0.0438262

PIMPLE: iteration 1
MULES: Solving for alpha.water
Phase-1 volume fraction = 0.25  Min(alpha.water) = -1.79936e-10  Max(alpha.water) = 1
MULES: Solving for alpha.water
Phase-1 volume fraction = 0.25  Min(alpha.water) = -1.55564e-10  Max(alpha.water) = 1
DICPCG:  Solving for p_rgh, Initial residual = 0.0495981, Final residual = 0.00210823, No Iterations 3
time step continuity errors : sum local = 6.23962e-06, global = 4.63987e-21, cumulative = 5.49081e-19
DICPCG:  Solving for p_rgh, Initial residual = 0.0182022, Final residual = 0.000861022, No Iterations 14
time step continuity errors : sum local = 2.55234e-06, global = -3.43064e-20, cumulative = 5.14774e-19
DICPCG:  Solving for p_rgh, Initial residual = 0.00441208, Final residual = 7.71158e-08, No Iterations 93
time step continuity errors : sum local = 2.23539e-10, global = 6.46615e-20, cumulative = 5.79436e-19
ExecutionTime = 2.3 s  ClockTime = 2 s

Courant Number mean: 0.0607342 max: 0.474878
Interface Courant Number mean: 0.00379699 max: 0.468281
deltaT = 0.00216053
Time = 0.0459867

PIMPLE: iteration 1
MULES: Solving for alpha.water
Phase-1 volume fraction = 0.25  Min(alpha.water) = -1.33936e-10  Max(alpha.water) = 1
MULES: Solving for alpha.water
Phase-1 volume fraction = 0.25  Min(alpha.water) = -1.15313e-10  Max(alpha.water) = 1
DICPCG:  Solving for p_rgh, Initial residual = 0.0496025, Final residual = 0.00169998, No Iterations 3
time step continuity errors : sum local = 5.26177e-06, global = 9.77572e-20, cumulative = 6.77193e-19
DICPCG:  Solving for p_rgh, Initial residual = 0.0192343, Final residual = 0.000931146, No Iterations 4
time step continuity errors : sum local = 2.85178e-06, global = -5.43649e-20, cumulative = 6.22828e-19
DICPCG:  Solving for p_rgh, Initial residual = 0.0046934, Final residual = 8.7304e-08, No Iterations 94
time step continuity errors : sum local = 2.65673e-10, global = 1.12712e-20, cumulative = 6.34099e-19
ExecutionTime = 2.37 s  ClockTime = 2 s

Courant Number mean: 0.0634108 max: 0.489846
Interface Courant Number mean: 0.00399733 max: 0.475883
deltaT = 0.00216053
Time = 0.0481473

PIMPLE: iteration 1
MULES: Solving for alpha.water
Phase-1 volume fraction = 0.25  Min(alpha.water) = -9.95139e-11  Max(alpha.water) = 1
MULES: Solving for alpha.water
Phase-1 volume fraction = 0.25  Min(alpha.water) = -8.58785e-11  Max(alpha.water) = 1
DICPCG:  Solving for p_rgh, Initial residual = 0.048296, Final residual = 0.00204374, No Iterations 4
time step continuity errors : sum local = 6.23402e-06, global = -1.37965e-19, cumulative = 4.96135e-19
DICPCG:  Solving for p_rgh, Initial residual = 0.0201204, Final residual = 0.000975256, No Iterations 10
time step continuity errors : sum local = 2.97492e-06, global = 1.2603e-19, cumulative = 6.22164e-19
DICPCG:  Solving for p_rgh, Initial residual = 0.00480037, Final residual = 8.48438e-08, No Iterations 92
time step continuity errors : sum local = 2.5593e-10, global = -8.78962e-20, cumulative = 5.34268e-19
ExecutionTime = 2.44 s  ClockTime = 2 s

Courant Number mean: 0.0637636 max: 0.484583
Interface Courant Number mean: 0.00421715 max: 0.463701
deltaT = 0.00216053
Time = 0.0503078

PIMPLE: iteration 1
MULES: Solving for alpha.water
Phase-1 volume fraction = 0.25  Min(alpha.water) = -7.43165e-11  Max(alpha.water) = 1
MULES: Solving for alpha.water
Phase-1 volume fraction = 0.25  Min(alpha.water) = -6.43068e-11  Max(alpha.water) = 1
DICPCG:  Solving for p_rgh, Initial residual = 0.0495038, Final residual = 0.0021255, No Iterations 3
time step continuity errors : sum local = 6.42642e-06, global = -3.77034e-20, cumulative = 4.96565e-19
DICPCG:  Solving for p_rgh, Initial residual = 0.0202172, Final residual = 0.00100284, No Iterations 5
time step continuity errors : sum local = 3.02555e-06, global = -2.60044e-21, cumulative = 4.93964e-19
DICPCG:  Solving for p_rgh, Initial residual = 0.00461492, Final residual = 9.39798e-08, No Iterations 93
time step continuity errors : sum local = 2.82109e-10, global = -4.36952e-20, cumulative = 4.50269e-19
ExecutionTime = 2.51 s  ClockTime = 2 s

Courant Number mean: 0.0641368 max: 0.47761
Interface Courant Number mean: 0.00408292 max: 0.468877
deltaT = 0.00225874
Time = 0.0525665

PIMPLE: iteration 1
MULES: Solving for alpha.water
Phase-1 volume fraction = 0.25  Min(alpha.water) = -5.54409e-11  Max(alpha.water) = 1
MULES: Solving for alpha.water
Phase-1 volume fraction = 0.25  Min(alpha.water) = -4.77947e-11  Max(alpha.water) = 1
DICPCG:  Solving for p_rgh, Initial residual = 0.0503828, Final residual = 0.00237687, No Iterations 3
time step continuity errors : sum local = 7.68059e-06, global = 8.39899e-20, cumulative = 5.34259e-19
DICPCG:  Solving for p_rgh, Initial residual = 0.0221378, Final residual = 0.00104556, No Iterations 11
time step continuity errors : sum local = 3.44555e-06, global = 7.01274e-20, cumulative = 6.04386e-19
DICPCG:  Solving for p_rgh, Initial residual = 0.00532359, Final residual = 7.20809e-08, No Iterations 92
time step continuity errors : sum local = 2.28196e-10, global = 1.18288e-19, cumulative = 7.22674e-19
ExecutionTime = 2.58 s  ClockTime = 3 s

Courant Number mean: 0.0674647 max: 0.493828
Interface Courant Number mean: 0.00462102 max: 0.493828
deltaT = 0.00225874
Time = 0.0548253

PIMPLE: iteration 1
MULES: Solving for alpha.water
Phase-1 volume fraction = 0.25  Min(alpha.water) = -4.13718e-11  Max(alpha.water) = 1
MULES: Solving for alpha.water
Phase-1 volume fraction = 0.25  Min(alpha.water) = -2.62453e-11  Max(alpha.water) = 1
DICPCG:  Solving for p_rgh, Initial residual = 0.0453639, Final residual = 0.00205375, No Iterations 3
time step continuity errors : sum local = 6.52091e-06, global = -1.1535e-19, cumulative = 6.07325e-19
DICPCG:  Solving for p_rgh, Initial residual = 0.0219776, Final residual = 0.00107208, No Iterations 7
time step continuity errors : sum local = 3.41158e-06, global = -2.15899e-19, cumulative = 3.91426e-19
DICPCG:  Solving for p_rgh, Initial residual = 0.00515118, Final residual = 8.05632e-08, No Iterations 92
time step continuity errors : sum local = 2.55907e-10, global = 4.13109e-20, cumulative = 4.32737e-19
ExecutionTime = 2.65 s  ClockTime = 3 s

Courant Number mean: 0.0678869 max: 0.493134
Interface Courant Number mean: 0.00484985 max: 0.493134
deltaT = 0.00225874
Time = 0.057084

PIMPLE: iteration 1
MULES: Solving for alpha.water
Phase-1 volume fraction = 0.25  Min(alpha.water) = -2.18189e-11  Max(alpha.water) = 1
MULES: Solving for alpha.water
Phase-1 volume fraction = 0.25  Min(alpha.water) = -1.81364e-11  Max(alpha.water) = 1
DICPCG:  Solving for p_rgh, Initial residual = 0.0491979, Final residual = 0.00225727, No Iterations 5
time step continuity errors : sum local = 7.15682e-06, global = -7.30209e-21, cumulative = 4.25435e-19
DICPCG:  Solving for p_rgh, Initial residual = 0.0223813, Final residual = 0.00100786, No Iterations 10
time step continuity errors : sum local = 3.18569e-06, global = -2.07335e-20, cumulative = 4.04701e-19
DICPCG:  Solving for p_rgh, Initial residual = 0.00511892, Final residual = 8.4329e-08, No Iterations 93
time step continuity errors : sum local = 2.65718e-10, global = -9.74712e-20, cumulative = 3.0723e-19
ExecutionTime = 2.72 s  ClockTime = 3 s

Courant Number mean: 0.0683119 max: 0.488948
Interface Courant Number mean: 0.00526129 max: 0.488948
deltaT = 0.00225874
Time = 0.0593427

PIMPLE: iteration 1
MULES: Solving for alpha.water
Phase-1 volume fraction = 0.25  Min(alpha.water) = -1.50751e-11  Max(alpha.water) = 1
MULES: Solving for alpha.water
Phase-1 volume fraction = 0.25  Min(alpha.water) = -1.25314e-11  Max(alpha.water) = 1
DICPCG:  Solving for p_rgh, Initial residual = 0.0464775, Final residual = 0.00201364, No Iterations 3
time step continuity errors : sum local = 6.32438e-06, global = 1.5823e-21, cumulative = 3.08812e-19
DICPCG:  Solving for p_rgh, Initial residual = 0.0221277, Final residual = 0.0010681, No Iterations 9
time step continuity errors : sum local = 3.34178e-06, global = -7.5503e-20, cumulative = 2.33309e-19
DICPCG:  Solving for p_rgh, Initial residual = 0.00502408, Final residual = 9.09908e-08, No Iterations 90
time step continuity errors : sum local = 2.82316e-10, global = -1.07622e-19, cumulative = 1.25687e-19
ExecutionTime = 2.79 s  ClockTime = 3 s

Courant Number mean: 0.0687559 max: 0.481633
Interface Courant Number mean: 0.00552163 max: 0.481633
deltaT = 0.00225874
Time = 0.0616015

PIMPLE: iteration 1
MULES: Solving for alpha.water
Phase-1 volume fraction = 0.25  Min(alpha.water) = -1.04249e-11  Max(alpha.water) = 1
MULES: Solving for alpha.water
Phase-1 volume fraction = 0.25  Min(alpha.water) = -8.67034e-12  Max(alpha.water) = 1
DICPCG:  Solving for p_rgh, Initial residual = 0.0496847, Final residual = 0.0022041, No Iterations 3
time step continuity errors : sum local = 6.83264e-06, global = -1.09508e-19, cumulative = 1.61798e-20
DICPCG:  Solving for p_rgh, Initial residual = 0.0227472, Final residual = 0.00113224, No Iterations 9
time step continuity errors : sum local = 3.51068e-06, global = -6.69964e-20, cumulative = -5.08166e-20
DICPCG:  Solving for p_rgh, Initial residual = 0.00501789, Final residual = 8.14679e-08, No Iterations 90
time step continuity errors : sum local = 2.50626e-10, global = -2.76721e-20, cumulative = -7.84886e-20
ExecutionTime = 2.86 s  ClockTime = 3 s

Courant Number mean: 0.0692094 max: 0.474144
Interface Courant Number mean: 0.00622867 max: 0.471719
deltaT = 0.00225874
Time = 0.0638602

PIMPLE: iteration 1
MULES: Solving for alpha.water
Phase-1 volume fraction = 0.25  Min(alpha.water) = -7.21999e-12  Max(alpha.water) = 1
MULES: Solving for alpha.water
Phase-1 volume fraction = 0.25  Min(alpha.water) = -6.00925e-12  Max(alpha.water) = 1
DICPCG:  Solving for p_rgh, Initial residual = 0.0469411, Final residual = 0.002125, No Iterations 3
time step continuity errors : sum local = 6.53479e-06, global = -5.0948e-20, cumulative = -1.29437e-19
DICPCG:  Solving for p_rgh, Initial residual = 0.0224129, Final residual = 0.00111774, No Iterations 11
time step continuity errors : sum local = 3.47432e-06, global = -1.26967e-20, cumulative = -1.42133e-19
DICPCG:  Solving for p_rgh, Initial residual = 0.00504764, Final residual = 9.83801e-08, No Iterations 94
time step continuity errors : sum local = 3.01966e-10, global = 1.43775e-19, cumulative = 1.64212e-21
ExecutionTime = 2.93 s  ClockTime = 3 s

Courant Number mean: 0.069671 max: 0.474795
Interface Courant Number mean: 0.00603388 max: 0.468801
deltaT = 0.00225874
Time = 0.066119

PIMPLE: iteration 1
MULES: Solving for alpha.water
Phase-1 volume fraction = 0.25  Min(alpha.water) = -5.00789e-12  Max(alpha.water) = 1
MULES: Solving for alpha.water
Phase-1 volume fraction = 0.25  Min(alpha.water) = -4.66411e-12  Max(alpha.water) = 1
DICPCG:  Solving for p_rgh, Initial residual = 0.0486401, Final residual = 0.00235188, No Iterations 3
time step continuity errors : sum local = 7.20138e-06, global = -1.38811e-19, cumulative = -1.37169e-19
DICPCG:  Solving for p_rgh, Initial residual = 0.0220651, Final residual = 0.00108622, No Iterations 7
time step continuity errors : sum local = 3.35361e-06, global = -1.95558e-20, cumulative = -1.56725e-19
DICPCG:  Solving for p_rgh, Initial residual = 0.00478637, Final residual = 9.94038e-08, No Iterations 91
time step continuity errors : sum local = 3.04854e-10, global = 8.73926e-20, cumulative = -6.93322e-20
ExecutionTime = 3 s  ClockTime = 3 s

Courant Number mean: 0.0701221 max: 0.475768
Interface Courant Number mean: 0.00690102 max: 0.46973
deltaT = 0.00225874
Time = 0.0683777

PIMPLE: iteration 1
MULES: Solving for alpha.water
Phase-1 volume fraction = 0.25  Min(alpha.water) = -4.61622e-12  Max(alpha.water) = 1
MULES: Solving for alpha.water
Phase-1 volume fraction = 0.25  Min(alpha.water) = -4.5143e-12  Max(alpha.water) = 1
DICPCG:  Solving for p_rgh, Initial residual = 0.0516481, Final residual = 0.00257309, No Iterations 3
time step continuity errors : sum local = 7.85778e-06, global = 1.01778e-19, cumulative = 3.24463e-20
DICPCG:  Solving for p_rgh, Initial residual = 0.0216315, Final residual = 0.00104645, No Iterations 8
time step continuity errors : sum local = 3.20955e-06, global = -1.45312e-20, cumulative = 1.79151e-20
DICPCG:  Solving for p_rgh, Initial residual = 0.00483424, Final residual = 7.94672e-08, No Iterations 92
time step continuity errors : sum local = 2.41987e-10, global = -5.46228e-20, cumulative = -3.67077e-20
ExecutionTime = 3.07 s  ClockTime = 3 s

Courant Number mean: 0.0705945 max: 0.475586
Interface Courant Number mean: 0.00697059 max: 0.474525
deltaT = 0.00225874
Time = 0.0706364

PIMPLE: iteration 1
MULES: Solving for alpha.water
Phase-1 volume fraction = 0.25  Min(alpha.water) = -4.38019e-12  Max(alpha.water) = 1
MULES: Solving for alpha.water
Phase-1 volume fraction = 0.25  Min(alpha.water) = -4.21768e-12  Max(alpha.water) = 1
DICPCG:  Solving for p_rgh, Initial residual = 0.0475671, Final residual = 0.0019833, No Iterations 3
time step continuity errors : sum local = 6.03392e-06, global = -2.66246e-20, cumulative = -6.33323e-20
DICPCG:  Solving for p_rgh, Initial residual = 0.0207302, Final residual = 0.000987916, No Iterations 6
time step continuity errors : sum local = 3.08284e-06, global = 4.78135e-20, cumulative = -1.55188e-20
DICPCG:  Solving for p_rgh, Initial residual = 0.00463156, Final residual = 7.27357e-08, No Iterations 94
time step continuity errors : sum local = 2.2102e-10, global = 1.63546e-19, cumulative = 1.48027e-19
ExecutionTime = 3.14 s  ClockTime = 3 s

Courant Number mean: 0.0710627 max: 0.477915
Interface Courant Number mean: 0.00732498 max: 0.477915
deltaT = 0.00225874
Time = 0.0728952

PIMPLE: iteration 1
MULES: Solving for alpha.water
Phase-1 volume fraction = 0.25  Min(alpha.water) = -3.86808e-12  Max(alpha.water) = 1
MULES: Solving for alpha.water
Phase-1 volume fraction = 0.25  Min(alpha.water) = -3.54651e-12  Max(alpha.water) = 1
DICPCG:  Solving for p_rgh, Initial residual = 0.0484053, Final residual = 0.00156003, No Iterations 4
time step continuity errors : sum local = 4.77883e-06, global = -6.40857e-20, cumulative = 8.3941e-20
DICPCG:  Solving for p_rgh, Initial residual = 0.0206591, Final residual = 0.000797975, No Iterations 11
time step continuity errors : sum local = 2.42956e-06, global = -8.13784e-20, cumulative = 2.5626e-21
DICPCG:  Solving for p_rgh, Initial residual = 0.0045686, Final residual = 7.82227e-08, No Iterations 93
time step continuity errors : sum local = 2.3644e-10, global = 5.75279e-20, cumulative = 6.00905e-20
ExecutionTime = 3.21 s  ClockTime = 3 s

Courant Number mean: 0.0715496 max: 0.480241
Interface Courant Number mean: 0.00689017 max: 0.480241
deltaT = 0.00225874
Time = 0.0751539

PIMPLE: iteration 1
MULES: Solving for alpha.water
Phase-1 volume fraction = 0.25  Min(alpha.water) = -3.25772e-12  Max(alpha.water) = 1
MULES: Solving for alpha.water
Phase-1 volume fraction = 0.25  Min(alpha.water) = -2.99079e-12  Max(alpha.water) = 1
DICPCG:  Solving for p_rgh, Initial residual = 0.0465437, Final residual = 0.00228252, No Iterations 3
time step continuity errors : sum local = 6.89754e-06, global = -2.46122e-20, cumulative = 3.54783e-20
DICPCG:  Solving for p_rgh, Initial residual = 0.0203929, Final residual = 0.000732797, No Iterations 7
time step continuity errors : sum local = 2.28991e-06, global = 3.78229e-20, cumulative = 7.33013e-20
DICPCG:  Solving for p_rgh, Initial residual = 0.00432637, Final residual = 8.6637e-08, No Iterations 93
time step continuity errors : sum local = 2.61331e-10, global = 1.43741e-20, cumulative = 8.76753e-20
ExecutionTime = 3.28 s  ClockTime = 3 s

Courant Number mean: 0.0720167 max: 0.481037
Interface Courant Number mean: 0.00716272 max: 0.481037
deltaT = 0.00225874
Time = 0.0774126

PIMPLE: iteration 1
MULES: Solving for alpha.water
Phase-1 volume fraction = 0.25  Min(alpha.water) = -1.7293e-12  Max(alpha.water) = 1
MULES: Solving for alpha.water
Phase-1 volume fraction = 0.25  Min(alpha.water) = -1.53546e-12  Max(alpha.water) = 1
DICPCG:  Solving for p_rgh, Initial residual = 0.0401456, Final residual = 0.00157184, No Iterations 4
time step continuity errors : sum local = 4.86439e-06, global = -2.23269e-20, cumulative = 6.53485e-20
DICPCG:  Solving for p_rgh, Initial residual = 0.0195886, Final residual = 0.000836033, No Iterations 6
time step continuity errors : sum local = 2.63058e-06, global = -1.2329e-19, cumulative = -5.79411e-20
DICPCG:  Solving for p_rgh, Initial residual = 0.00421728, Final residual = 8.83837e-08, No Iterations 93
time step continuity errors : sum local = 2.67886e-10, global = 8.211e-20, cumulative = 2.41689e-20
ExecutionTime = 3.35 s  ClockTime = 3 s

Courant Number mean: 0.0724704 max: 0.480388
Interface Courant Number mean: 0.00749003 max: 0.480388
deltaT = 0.00225874
Time = 0.0796714

PIMPLE: iteration 1
MULES: Solving for alpha.water
Phase-1 volume fraction = 0.25  Min(alpha.water) = -1.36884e-12  Max(alpha.water) = 1
MULES: Solving for alpha.water
Phase-1 volume fraction = 0.25  Min(alpha.water) = -1.21941e-12  Max(alpha.water) = 1
DICPCG:  Solving for p_rgh, Initial residual = 0.0464929, Final residual = 0.00212881, No Iterations 4
time step continuity errors : sum local = 6.5358e-06, global = -7.27574e-20, cumulative = -4.85886e-20
DICPCG:  Solving for p_rgh, Initial residual = 0.0194484, Final residual = 0.000926103, No Iterations 7
time step continuity errors : sum local = 2.96786e-06, global = 4.9135e-21, cumulative = -4.36751e-20
DICPCG:  Solving for p_rgh, Initial residual = 0.0041719, Final residual = 9.66811e-08, No Iterations 93
time step continuity errors : sum local = 2.91642e-10, global = 3.76515e-20, cumulative = -6.02351e-21
ExecutionTime = 3.42 s  ClockTime = 3 s

Courant Number mean: 0.0729257 max: 0.486001
Interface Courant Number mean: 0.00762886 max: 0.478738
deltaT = 0.00225874
Time = 0.0819301

PIMPLE: iteration 1
MULES: Solving for alpha.water
Phase-1 volume fraction = 0.25  Min(alpha.water) = -1.08803e-12  Max(alpha.water) = 1
MULES: Solving for alpha.water
Phase-1 volume fraction = 0.25  Min(alpha.water) = -9.69844e-13  Max(alpha.water) = 1
DICPCG:  Solving for p_rgh, Initial residual = 0.0457077, Final residual = 0.00169566, No Iterations 5
time step continuity errors : sum local = 5.37641e-06, global = -6.92881e-20, cumulative = -7.53116e-20
DICPCG:  Solving for p_rgh, Initial residual = 0.0195807, Final residual = 0.000875648, No Iterations 6
time step continuity errors : sum local = 2.85369e-06, global = 1.62116e-19, cumulative = 8.68039e-20
DICPCG:  Solving for p_rgh, Initial residual = 0.00409287, Final residual = 7.80038e-08, No Iterations 90
time step continuity errors : sum local = 2.35981e-10, global = -1.05848e-19, cumulative = -1.90438e-20
ExecutionTime = 3.49 s  ClockTime = 3 s

Courant Number mean: 0.073375 max: 0.489873
Interface Courant Number mean: 0.00781476 max: 0.478037
deltaT = 0.00225874
Time = 0.0841888

PIMPLE: iteration 1
MULES: Solving for alpha.water
Phase-1 volume fraction = 0.25  Min(alpha.water) = -8.66041e-13  Max(alpha.water) = 1
MULES: Solving for alpha.water
Phase-1 volume fraction = 0.25  Min(alpha.water) = -7.72291e-13  Max(alpha.water) = 1
DICPCG:  Solving for p_rgh, Initial residual = 0.0456832, Final residual = 0.0016746, No Iterations 6
time step continuity errors : sum local = 5.40422e-06, global = -1.88531e-19, cumulative = -2.07574e-19
DICPCG:  Solving for p_rgh, Initial residual = 0.0195098, Final residual = 0.000973352, No Iterations 6
time step continuity errors : sum local = 3.22264e-06, global = 2.92877e-20, cumulative = -1.78287e-19
DICPCG:  Solving for p_rgh, Initial residual = 0.00402867, Final residual = 7.72048e-08, No Iterations 91
time step continuity errors : sum local = 2.36817e-10, global = 2.18952e-20, cumulative = -1.56392e-19
ExecutionTime = 3.56 s  ClockTime = 4 s

Courant Number mean: 0.0738257 max: 0.490862
Interface Courant Number mean: 0.00769215 max: 0.490862
deltaT = 0.00225874
Time = 0.0864476

PIMPLE: iteration 1
MULES: Solving for alpha.water
Phase-1 volume fraction = 0.25  Min(alpha.water) = -6.8993e-13  Max(alpha.water) = 1
MULES: Solving for alpha.water
Phase-1 volume fraction = 0.25  Min(alpha.water) = -6.15188e-13  Max(alpha.water) = 1
DICPCG:  Solving for p_rgh, Initial residual = 0.0450036, Final residual = 0.0020758, No Iterations 7
time step continuity errors : sum local = 6.86479e-06, global = 8.9901e-20, cumulative = -6.64906e-20
DICPCG:  Solving for p_rgh, Initial residual = 0.0192712, Final residual = 0.000751347, No Iterations 11
time step continuity errors : sum local = 2.64023e-06, global = -5.40047e-20, cumulative = -1.20495e-19
DICPCG:  Solving for p_rgh, Initial residual = 0.00384899, Final residual = 9.77782e-08, No Iterations 90
time step continuity errors : sum local = 3.01203e-10, global = -3.3453e-20, cumulative = -1.53948e-19
ExecutionTime = 3.63 s  ClockTime = 4 s

Courant Number mean: 0.0742518 max: 0.489292
Interface Courant Number mean: 0.0079585 max: 0.489292
deltaT = 0.00225874
Time = 0.0887063

PIMPLE: iteration 1
MULES: Solving for alpha.water
Phase-1 volume fraction = 0.25  Min(alpha.water) = -5.49687e-13  Max(alpha.water) = 1
MULES: Solving for alpha.water
Phase-1 volume fraction = 0.25  Min(alpha.water) = -4.89912e-13  Max(alpha.water) = 1
DICPCG:  Solving for p_rgh, Initial residual = 0.0493087, Final residual = 0.00199667, No Iterations 8
time step continuity errors : sum local = 6.68628e-06, global = 5.19161e-20, cumulative = -1.02032e-19
DICPCG:  Solving for p_rgh, Initial residual = 0.0193248, Final residual = 0.000892647, No Iterations 20
time step continuity errors : sum local = 2.97608e-06, global = 2.35267e-20, cumulative = -7.85054e-20
DICPCG:  Solving for p_rgh, Initial residual = 0.00393667, Final residual = 9.34877e-08, No Iterations 91
time step continuity errors : sum local = 2.8687e-10, global = -1.14821e-19, cumulative = -1.93326e-19
ExecutionTime = 3.7 s  ClockTime = 4 s

Courant Number mean: 0.0747212 max: 0.485463
Interface Courant Number mean: 0.00844669 max: 0.485463
deltaT = 0.00225874
Time = 0.0909651

PIMPLE: iteration 1
MULES: Solving for alpha.water
Phase-1 volume fraction = 0.25  Min(alpha.water) = -4.37171e-13  Max(alpha.water) = 1
MULES: Solving for alpha.water
Phase-1 volume fraction = 0.25  Min(alpha.water) = -3.88305e-13  Max(alpha.water) = 1
DICPCG:  Solving for p_rgh, Initial residual = 0.0535852, Final residual = 0.00226554, No Iterations 8
time step continuity errors : sum local = 7.68973e-06, global = -1.03407e-19, cumulative = -2.96733e-19
DICPCG:  Solving for p_rgh, Initial residual = 0.0201273, Final residual = 0.000940344, No Iterations 21
time step continuity errors : sum local = 3.2622e-06, global = 5.12686e-20, cumulative = -2.45465e-19
DICPCG:  Solving for p_rgh, Initial residual = 0.0039128, Final residual = 7.97952e-08, No Iterations 92
time step continuity errors : sum local = 2.42113e-10, global = -1.89575e-20, cumulative = -2.64422e-19
ExecutionTime = 3.77 s  ClockTime = 4 s

Courant Number mean: 0.0751502 max: 0.48161
Interface Courant Number mean: 0.00832324 max: 0.48161
deltaT = 0.00225874
Time = 0.0932238

PIMPLE: iteration 1
MULES: Solving for alpha.water
Phase-1 volume fraction = 0.25  Min(alpha.water) = -2.97956e-13  Max(alpha.water) = 1
MULES: Solving for alpha.water
Phase-1 volume fraction = 0.25  Min(alpha.water) = -1.47877e-13  Max(alpha.water) = 1
DICPCG:  Solving for p_rgh, Initial residual = 0.0508614, Final residual = 0.00209898, No Iterations 8
time step continuity errors : sum local = 7.10994e-06, global = 5.87087e-20, cumulative = -2.05713e-19
DICPCG:  Solving for p_rgh, Initial residual = 0.0196569, Final residual = 0.00089712, No Iterations 11
time step continuity errors : sum local = 3.2558e-06, global = 6.90441e-20, cumulative = -1.36669e-19
DICPCG:  Solving for p_rgh, Initial residual = 0.00387205, Final residual = 8.65276e-08, No Iterations 94
time step continuity errors : sum local = 2.64191e-10, global = -6.58628e-20, cumulative = -2.02532e-19
ExecutionTime = 3.85 s  ClockTime = 4 s

Courant Number mean: 0.0756173 max: 0.487096
Interface Courant Number mean: 0.00844631 max: 0.482565
deltaT = 0.00225874
Time = 0.0954825

PIMPLE: iteration 1
MULES: Solving for alpha.water
Phase-1 volume fraction = 0.25  Min(alpha.water) = -1.9154e-14  Max(alpha.water) = 1
MULES: Solving for alpha.water
Phase-1 volume fraction = 0.25  Min(alpha.water) = -1.6726e-14  Max(alpha.water) = 1
DICPCG:  Solving for p_rgh, Initial residual = 0.0543803, Final residual = 0.00236239, No Iterations 8
time step continuity errors : sum local = 7.74173e-06, global = -5.88166e-20, cumulative = -2.61349e-19
DICPCG:  Solving for p_rgh, Initial residual = 0.0200964, Final residual = 0.000895705, No Iterations 11
time step continuity errors : sum local = 3.09044e-06, global = -3.7934e-20, cumulative = -2.99283e-19
DICPCG:  Solving for p_rgh, Initial residual = 0.0038154, Final residual = 9.97424e-08, No Iterations 93
time step continuity errors : sum local = 2.99657e-10, global = -1.01799e-19, cumulative = -4.01082e-19
ExecutionTime = 3.92 s  ClockTime = 4 s

Courant Number mean: 0.07604 max: 0.491773
Interface Courant Number mean: 0.00889633 max: 0.483072
deltaT = 0.00225874
Time = 0.0977413

PIMPLE: iteration 1
MULES: Solving for alpha.water
Phase-1 volume fraction = 0.25  Min(alpha.water) = -1.45796e-14  Max(alpha.water) = 1
MULES: Solving for alpha.water
Phase-1 volume fraction = 0.25  Min(alpha.water) = -1.27079e-14  Max(alpha.water) = 1
DICPCG:  Solving for p_rgh, Initial residual = 0.056005, Final residual = 0.00212965, No Iterations 8
time step continuity errors : sum local = 6.92168e-06, global = 1.28451e-19, cumulative = -2.72631e-19
DICPCG:  Solving for p_rgh, Initial residual = 0.019979, Final residual = 0.000894283, No Iterations 11
time step continuity errors : sum local = 3.09074e-06, global = -2.67548e-20, cumulative = -2.99386e-19
DICPCG:  Solving for p_rgh, Initial residual = 0.00375918, Final residual = 8.898e-08, No Iterations 93
time step continuity errors : sum local = 2.69125e-10, global = -9.306e-20, cumulative = -3.92446e-19
ExecutionTime = 3.99 s  ClockTime = 4 s

Courant Number mean: 0.076504 max: 0.493631
Interface Courant Number mean: 0.00905674 max: 0.482906
deltaT = 0.00225874
Time = 0.1

PIMPLE: iteration 1
MULES: Solving for alpha.water
Phase-1 volume fraction = 0.25  Min(alpha.water) = -1.10404e-14  Max(alpha.water) = 1
MULES: Solving for alpha.water
Phase-1 volume fraction = 0.25  Min(alpha.water) = -3.44561e-15  Max(alpha.water) = 1
DICPCG:  Solving for p_rgh, Initial residual = 0.0513894, Final residual = 0.00247126, No Iterations 7
time step continuity errors : sum local = 7.80172e-06, global = 5.47918e-20, cumulative = -3.37654e-19
DICPCG:  Solving for p_rgh, Initial residual = 0.0201055, Final residual = 0.000922891, No Iterations 8
time step continuity errors : sum local = 3.0522e-06, global = -5.96831e-20, cumulative = -3.97337e-19
DICPCG:  Solving for p_rgh, Initial residual = 0.00362996, Final residual = 9.68587e-08, No Iterations 90
time step continuity errors : sum local = 2.91032e-10, global = -1.01558e-19, cumulative = -4.98895e-19
ExecutionTime = 4.44 s  ClockTime = 6 s

Courant Number mean: 0.0769256 max: 0.49308
Interface Courant Number mean: 0.00941725 max: 0.484327
deltaT = 0.00227273
Time = 0.102273

PIMPLE: iteration 1
MULES: Solving for alpha.water
Phase-1 volume fraction = 0.25  Min(alpha.water) = 2.64104e-109  Max(alpha.water) = 1
MULES: Solving for alpha.water
Phase-1 volume fraction = 0.25  Min(alpha.water) = 1.57943e-108  Max(alpha.water) = 1
DICPCG:  Solving for p_rgh, Initial residual = 0.057305, Final residual = 0.00277529, No Iterations 7
time step continuity errors : sum local = 8.65172e-06, global = -1.82806e-19, cumulative = -6.81701e-19
DICPCG:  Solving for p_rgh, Initial residual = 0.0200253, Final residual = 0.000952013, No Iterations 10
time step continuity errors : sum local = 3.10367e-06, global = -3.12225e-20, cumulative = -7.12924e-19
DICPCG:  Solving for p_rgh, Initial residual = 0.0036066, Final residual = 9.24795e-08, No Iterations 92
time step continuity errors : sum local = 2.79887e-10, global = -1.09455e-19, cumulative = -8.22379e-19
ExecutionTime = 4.51 s  ClockTime = 6 s

Courant Number mean: 0.0778507 max: 0.496066
Interface Courant Number mean: 0.00989048 max: 0.493369
deltaT = 0.00227273
Time = 0.104545

PIMPLE: iteration 1
MULES: Solving for alpha.water
Phase-1 volume fraction = 0.25  Min(alpha.water) = -2.74264e-09  Max(alpha.water) = 1
MULES: Solving for alpha.water
Phase-1 volume fraction = 0.25  Min(alpha.water) = -2.13864e-14  Max(alpha.water) = 1
DICPCG:  Solving for p_rgh, Initial residual = 0.0580122, Final residual = 0.00252327, No Iterations 7
time step continuity errors : sum local = 7.71839e-06, global = -5.15318e-20, cumulative = -8.73911e-19
DICPCG:  Solving for p_rgh, Initial residual = 0.0198472, Final residual = 0.000989142, No Iterations 8
time step continuity errors : sum local = 3.08573e-06, global = 1.648e-20, cumulative = -8.57431e-19
DICPCG:  Solving for p_rgh, Initial residual = 0.00351988, Final residual = 8.20453e-08, No Iterations 90
time step continuity errors : sum local = 2.47873e-10, global = 1.1127e-19, cumulative = -7.46161e-19
ExecutionTime = 4.58 s  ClockTime = 6 s

Courant Number mean: 0.0782685 max: 0.495279
Interface Courant Number mean: 0.00950243 max: 0.493965
deltaT = 0.00227273
Time = 0.106818

PIMPLE: iteration 1
MULES: Solving for alpha.water
Phase-1 volume fraction = 0.25  Min(alpha.water) = 2.97446e-106  Max(alpha.water) = 1
MULES: Solving for alpha.water
Phase-1 volume fraction = 0.25  Min(alpha.water) = 1.56257e-105  Max(alpha.water) = 1
DICPCG:  Solving for p_rgh, Initial residual = 0.0611993, Final residual = 0.0024785, No Iterations 7
time step continuity errors : sum local = 7.6112e-06, global = -1.17851e-19, cumulative = -8.64012e-19
DICPCG:  Solving for p_rgh, Initial residual = 0.0195407, Final residual = 0.000787485, No Iterations 10
time step continuity errors : sum local = 2.39095e-06, global = 1.45717e-20, cumulative = -8.4944e-19
DICPCG:  Solving for p_rgh, Initial residual = 0.00330945, Final residual = 8.76554e-08, No Iterations 89
time step continuity errors : sum local = 2.65438e-10, global = 2.41291e-21, cumulative = -8.47027e-19
ExecutionTime = 4.65 s  ClockTime = 6 s

Courant Number mean: 0.0786924 max: 0.496991
Interface Courant Number mean: 0.00986435 max: 0.496991
deltaT = 0.00227273
Time = 0.109091

PIMPLE: iteration 1
MULES: Solving for alpha.water
Phase-1 volume fraction = 0.25  Min(alpha.water) = 8.21834e-105  Max(alpha.water) = 1
MULES: Solving for alpha.water
Phase-1 volume fraction = 0.25  Min(alpha.water) = 4.06509e-104  Max(alpha.water) = 1
DICPCG:  Solving for p_rgh, Initial residual = 0.0618514, Final residual = 0.00252369, No Iterations 7
time step continuity errors : sum local = 7.80132e-06, global = 9.92511e-20, cumulative = -7.47776e-19
DICPCG:  Solving for p_rgh, Initial residual = 0.0193652, Final residual = 0.000927964, No Iterations 8
time step continuity errors : sum local = 2.88449e-06, global = -4.4028e-20, cumulative = -7.91804e-19
DICPCG:  Solving for p_rgh, Initial residual = 0.00342996, Final residual = 7.67314e-08, No Iterations 90
time step continuity errors : sum local = 2.30484e-10, global = 1.11651e-19, cumulative = -6.80153e-19
ExecutionTime = 4.72 s  ClockTime = 6 s

Courant Number mean: 0.0790615 max: 0.49957
Interface Courant Number mean: 0.0101496 max: 0.49957
deltaT = 0.00227273
Time = 0.111364

PIMPLE: iteration 1
MULES: Solving for alpha.water
Phase-1 volume fraction = 0.25  Min(alpha.water) = 2.01734e-103  Max(alpha.water) = 1
MULES: Solving for alpha.water
Phase-1 volume fraction = 0.25  Min(alpha.water) = 9.45551e-103  Max(alpha.water) = 1
DICPCG:  Solving for p_rgh, Initial residual = 0.0624334, Final residual = 0.00274872, No Iterations 7
time step continuity errors : sum local = 8.63392e-06, global = -6.84629e-20, cumulative = -7.48616e-19
DICPCG:  Solving for p_rgh, Initial residual = 0.0191453, Final residual = 0.000929226, No Iterations 11
time step continuity errors : sum local = 2.95106e-06, global = 1.77775e-20, cumulative = -7.30839e-19
DICPCG:  Solving for p_rgh, Initial residual = 0.00342073, Final residual = 8.21027e-08, No Iterations 91
time step continuity errors : sum local = 2.47508e-10, global = 2.32572e-20, cumulative = -7.07582e-19
ExecutionTime = 4.79 s  ClockTime = 6 s

Courant Number mean: 0.0794683 max: 0.501209
Interface Courant Number mean: 0.0103407 max: 0.501209
deltaT = 0.00221591
Time = 0.11358

PIMPLE: iteration 1
MULES: Solving for alpha.water
Phase-1 volume fraction = 0.25  Min(alpha.water) = 4.34734e-102  Max(alpha.water) = 1
MULES: Solving for alpha.water
Phase-1 volume fraction = 0.25  Min(alpha.water) = 1.8977e-101  Max(alpha.water) = 1
DICPCG:  Solving for p_rgh, Initial residual = 0.0649783, Final residual = 0.00261688, No Iterations 7
time step continuity errors : sum local = 7.97222e-06, global = 1.7828e-19, cumulative = -5.29302e-19
DICPCG:  Solving for p_rgh, Initial residual = 0.0189446, Final residual = 0.000944219, No Iterations 11
time step continuity errors : sum local = 2.93977e-06, global = -3.14213e-20, cumulative = -5.60723e-19
DICPCG:  Solving for p_rgh, Initial residual = 0.00325861, Final residual = 8.00162e-08, No Iterations 90
time step continuity errors : sum local = 2.30752e-10, global = -5.19414e-20, cumulative = -6.12664e-19
ExecutionTime = 4.86 s  ClockTime = 6 s

Courant Number mean: 0.0778402 max: 0.490648
Interface Courant Number mean: 0.0106467 max: 0.489235
deltaT = 0.00221591
Time = 0.115795

PIMPLE: iteration 1
MULES: Solving for alpha.water
Phase-1 volume fraction = 0.25  Min(alpha.water) = 8.31745e-101  Max(alpha.water) = 1
MULES: Solving for alpha.water
Phase-1 volume fraction = 0.25  Min(alpha.water) = 3.47699e-100  Max(alpha.water) = 1
DICPCG:  Solving for p_rgh, Initial residual = 0.0692861, Final residual = 0.00301825, No Iterations 7
time step continuity errors : sum local = 9.34666e-06, global = 4.75352e-20, cumulative = -5.65129e-19
DICPCG:  Solving for p_rgh, Initial residual = 0.0192181, Final residual = 0.000799704, No Iterations 20
time step continuity errors : sum local = 2.57957e-06, global = -1.13995e-20, cumulative = -5.76529e-19
DICPCG:  Solving for p_rgh, Initial residual = 0.00321579, Final residual = 7.87316e-08, No Iterations 94
time step continuity errors : sum local = 2.27943e-10, global = -5.00435e-20, cumulative = -6.26572e-19
ExecutionTime = 4.94 s  ClockTime = 7 s

Courant Number mean: 0.0782139 max: 0.491895
Interface Courant Number mean: 0.0107105 max: 0.488727
deltaT = 0.00221591
Time = 0.118011

PIMPLE: iteration 1
MULES: Solving for alpha.water
Phase-1 volume fraction = 0.25  Min(alpha.water) = 1.45786e-99  Max(alpha.water) = 1
MULES: Solving for alpha.water
Phase-1 volume fraction = 0.25  Min(alpha.water) = 5.85185e-99  Max(alpha.water) = 1
DICPCG:  Solving for p_rgh, Initial residual = 0.0706212, Final residual = 0.00306579, No Iterations 7
time step continuity errors : sum local = 9.53735e-06, global = 5.90342e-20, cumulative = -5.67538e-19
DICPCG:  Solving for p_rgh, Initial residual = 0.0197907, Final residual = 0.000745312, No Iterations 20
time step continuity errors : sum local = 2.40001e-06, global = -1.44711e-19, cumulative = -7.12249e-19
DICPCG:  Solving for p_rgh, Initial residual = 0.00323998, Final residual = 9.00603e-08, No Iterations 93
time step continuity errors : sum local = 2.59995e-10, global = 2.88678e-20, cumulative = -6.83382e-19
ExecutionTime = 5.01 s  ClockTime = 7 s

Courant Number mean: 0.0785496 max: 0.492195
Interface Courant Number mean: 0.0106028 max: 0.486682
deltaT = 0.00221591
Time = 0.120227

PIMPLE: iteration 1
MULES: Solving for alpha.water
Phase-1 volume fraction = 0.25  Min(alpha.water) = 2.36175e-98  Max(alpha.water) = 1
MULES: Solving for alpha.water
Phase-1 volume fraction = 0.25  Min(alpha.water) = 9.14002e-98  Max(alpha.water) = 1
DICPCG:  Solving for p_rgh, Initial residual = 0.0742098, Final residual = 0.00334793, No Iterations 7
time step continuity errors : sum local = 1.03919e-05, global = 6.00992e-20, cumulative = -6.23282e-19
DICPCG:  Solving for p_rgh, Initial residual = 0.019464, Final residual = 0.00080326, No Iterations 20
time step continuity errors : sum local = 2.57714e-06, global = -4.62513e-20, cumulative = -6.69534e-19
DICPCG:  Solving for p_rgh, Initial residual = 0.00318182, Final residual = 8.31648e-08, No Iterations 94
time step continuity errors : sum local = 2.41148e-10, global = 7.74875e-20, cumulative = -5.92046e-19
ExecutionTime = 5.09 s  ClockTime = 7 s

Courant Number mean: 0.0789187 max: 0.491791
Interface Courant Number mean: 0.0107682 max: 0.486195
deltaT = 0.00221591
Time = 0.122443

PIMPLE: iteration 1
MULES: Solving for alpha.water
Phase-1 volume fraction = 0.25  Min(alpha.water) = 3.55024e-97  Max(alpha.water) = 1
MULES: Solving for alpha.water
Phase-1 volume fraction = 0.25  Min(alpha.water) = 1.32423e-96  Max(alpha.water) = 1
DICPCG:  Solving for p_rgh, Initial residual = 0.0760397, Final residual = 0.00365107, No Iterations 7
time step continuity errors : sum local = 1.13334e-05, global = -5.07729e-20, cumulative = -6.42819e-19
DICPCG:  Solving for p_rgh, Initial residual = 0.0194204, Final residual = 0.00069232, No Iterations 21
time step continuity errors : sum local = 2.27472e-06, global = 6.69748e-20, cumulative = -5.75844e-19
DICPCG:  Solving for p_rgh, Initial residual = 0.00307135, Final residual = 8.11858e-08, No Iterations 92
time step continuity errors : sum local = 2.35256e-10, global = 4.33493e-20, cumulative = -5.32495e-19
ExecutionTime = 5.16 s  ClockTime = 7 s

Courant Number mean: 0.0792571 max: 0.49066
Interface Courant Number mean: 0.0111591 max: 0.488935
deltaT = 0.00221591
Time = 0.124659

PIMPLE: iteration 1
MULES: Solving for alpha.water
Phase-1 volume fraction = 0.25  Min(alpha.water) = 4.9577e-96  Max(alpha.water) = 1
MULES: Solving for alpha.water
Phase-1 volume fraction = 0.25  Min(alpha.water) = 1.78482e-95  Max(alpha.water) = 1
DICPCG:  Solving for p_rgh, Initial residual = 0.081211, Final residual = 0.00402222, No Iterations 7
time step continuity errors : sum local = 1.23826e-05, global = -1.12532e-19, cumulative = -6.45027e-19
DICPCG:  Solving for p_rgh, Initial residual = 0.0193435, Final residual = 0.000874269, No Iterations 20
time step continuity errors : sum local = 2.72435e-06, global = -6.97368e-20, cumulative = -7.14763e-19
DICPCG:  Solving for p_rgh, Initial residual = 0.00309245, Final residual = 7.41482e-08, No Iterations 94
time step continuity errors : sum local = 2.1423e-10, global = 8.37216e-20, cumulative = -6.31042e-19
ExecutionTime = 5.24 s  ClockTime = 7 s

Courant Number mean: 0.0796414 max: 0.491055
Interface Courant Number mean: 0.0111876 max: 0.491055
deltaT = 0.00221591
Time = 0.126875

PIMPLE: iteration 1
MULES: Solving for alpha.water
Phase-1 volume fraction = 0.25  Min(alpha.water) = 6.43325e-95  Max(alpha.water) = 1
MULES: Solving for alpha.water
Phase-1 volume fraction = 0.25  Min(alpha.water) = 2.23392e-94  Max(alpha.water) = 1
DICPCG:  Solving for p_rgh, Initial residual = 0.0841611, Final residual = 0.00394405, No Iterations 7
time step continuity errors : sum local = 1.2149e-05, global = 4.84779e-20, cumulative = -5.82564e-19
DICPCG:  Solving for p_rgh, Initial residual = 0.0194324, Final residual = 0.000921698, No Iterations 20
time step continuity errors : sum local = 2.91471e-06, global = 7.39434e-20, cumulative = -5.08621e-19
DICPCG:  Solving for p_rgh, Initial residual = 0.00312412, Final residual = 9.89337e-08, No Iterations 91
time step continuity errors : sum local = 2.84217e-10, global = 5.71472e-20, cumulative = -4.51473e-19
ExecutionTime = 5.31 s  ClockTime = 7 s

Courant Number mean: 0.0799709 max: 0.492626
Interface Courant Number mean: 0.0115778 max: 0.492626
deltaT = 0.00221591
Time = 0.129091

PIMPLE: iteration 1
MULES: Solving for alpha.water
Phase-1 volume fraction = 0.25  Min(alpha.water) = 7.76186e-94  Max(alpha.water) = 1
MULES: Solving for alpha.water
Phase-1 volume fraction = 0.25  Min(alpha.water) = 2.6032e-93  Max(alpha.water) = 1
DICPCG:  Solving for p_rgh, Initial residual = 0.0845249, Final residual = 0.00402341, No Iterations 7
time step continuity errors : sum local = 1.23879e-05, global = 1.87852e-19, cumulative = -2.63621e-19
DICPCG:  Solving for p_rgh, Initial residual = 0.0193788, Final residual = 0.000798794, No Iterations 20
time step continuity errors : sum local = 2.53854e-06, global = 4.60304e-20, cumulative = -2.17591e-19
DICPCG:  Solving for p_rgh, Initial residual = 0.00299423, Final residual = 9.8277e-08, No Iterations 93
time step continuity errors : sum local = 2.81643e-10, global = -7.20879e-21, cumulative = -2.248e-19
ExecutionTime = 5.38 s  ClockTime = 7 s

Courant Number mean: 0.0803305 max: 0.493166
Interface Courant Number mean: 0.0111808 max: 0.493166
deltaT = 0.00221591
Time = 0.131307

PIMPLE: iteration 1
MULES: Solving for alpha.water
Phase-1 volume fraction = 0.25  Min(alpha.water) = 8.73436e-93  Max(alpha.water) = 1
MULES: Solving for alpha.water
Phase-1 volume fraction = 0.25  Min(alpha.water) = 2.83396e-92  Max(alpha.water) = 1
DICPCG:  Solving for p_rgh, Initial residual = 0.0899061, Final residual = 0.00417265, No Iterations 7
time step continuity errors : sum local = 1.28415e-05, global = 7.8677e-20, cumulative = -1.46123e-19
DICPCG:  Solving for p_rgh, Initial residual = 0.019659, Final residual = 0.000946114, No Iterations 20
time step continuity errors : sum local = 2.98098e-06, global = 3.16502e-20, cumulative = -1.14473e-19
DICPCG:  Solving for p_rgh, Initial residual = 0.00307557, Final residual = 8.73842e-08, No Iterations 93
time step continuity errors : sum local = 2.48989e-10, global = -2.14333e-20, cumulative = -1.35906e-19
ExecutionTime = 5.45 s  ClockTime = 7 s

Courant Number mean: 0.0806295 max: 0.492312
Interface Courant Number mean: 0.0115454 max: 0.492312
deltaT = 0.00221591
Time = 0.133523

PIMPLE: iteration 1
MULES: Solving for alpha.water
Phase-1 volume fraction = 0.25  Min(alpha.water) = 9.19306e-92  Max(alpha.water) = 1
MULES: Solving for alpha.water
Phase-1 volume fraction = 0.25  Min(alpha.water) = 2.88879e-91  Max(alpha.water) = 1
DICPCG:  Solving for p_rgh, Initial residual = 0.0909918, Final residual = 0.00417639, No Iterations 7
time step continuity errors : sum local = 1.27974e-05, global = 1.43615e-20, cumulative = -1.21544e-19
DICPCG:  Solving for p_rgh, Initial residual = 0.0197667, Final residual = 0.000923405, No Iterations 20
time step continuity errors : sum local = 2.92343e-06, global = -1.36422e-19, cumulative = -2.57967e-19
DICPCG:  Solving for p_rgh, Initial residual = 0.00307572, Final residual = 8.4137e-08, No Iterations 94
time step continuity errors : sum local = 2.39369e-10, global = -1.45174e-20, cumulative = -2.72484e-19
ExecutionTime = 5.53 s  ClockTime = 7 s

Courant Number mean: 0.0809781 max: 0.492908
Interface Courant Number mean: 0.0119915 max: 0.492908
deltaT = 0.00221591
Time = 0.135739

PIMPLE: iteration 1
MULES: Solving for alpha.water
Phase-1 volume fraction = 0.25  Min(alpha.water) = 9.07393e-91  Max(alpha.water) = 1
MULES: Solving for alpha.water
Phase-1 volume fraction = 0.25  Min(alpha.water) = 2.76548e-90  Max(alpha.water) = 1
DICPCG:  Solving for p_rgh, Initial residual = 0.092685, Final residual = 0.00413867, No Iterations 7
time step continuity errors : sum local = 1.26164e-05, global = 1.49575e-19, cumulative = -1.22909e-19
DICPCG:  Solving for p_rgh, Initial residual = 0.0202719, Final residual = 0.000919766, No Iterations 20
time step continuity errors : sum local = 2.86055e-06, global = -4.42326e-21, cumulative = -1.27332e-19
DICPCG:  Solving for p_rgh, Initial residual = 0.00313214, Final residual = 9.3873e-08, No Iterations 92
time step continuity errors : sum local = 2.63405e-10, global = -7.95691e-20, cumulative = -2.06901e-19
ExecutionTime = 5.6 s  ClockTime = 7 s

Courant Number mean: 0.0812694 max: 0.494711
Interface Courant Number mean: 0.0120433 max: 0.494649
deltaT = 0.00221591
Time = 0.137955

PIMPLE: iteration 1
MULES: Solving for alpha.water
Phase-1 volume fraction = 0.25  Min(alpha.water) = 8.41676e-90  Max(alpha.water) = 1
MULES: Solving for alpha.water
Phase-1 volume fraction = 0.25  Min(alpha.water) = 2.48929e-89  Max(alpha.water) = 1
DICPCG:  Solving for p_rgh, Initial residual = 0.095212, Final residual = 0.00417939, No Iterations 7
time step continuity errors : sum local = 1.26942e-05, global = -8.67704e-21, cumulative = -2.15578e-19
DICPCG:  Solving for p_rgh, Initial residual = 0.0201405, Final residual = 0.000998327, No Iterations 21
time step continuity errors : sum local = 3.15918e-06, global = 5.80128e-20, cumulative = -1.57565e-19
DICPCG:  Solving for p_rgh, Initial residual = 0.00322471, Final residual = 9.3661e-08, No Iterations 92
time step continuity errors : sum local = 2.61532e-10, global = 5.54781e-20, cumulative = -1.02087e-19
ExecutionTime = 5.68 s  ClockTime = 7 s

Courant Number mean: 0.0816197 max: 0.499109
Interface Courant Number mean: 0.0123731 max: 0.496344
deltaT = 0.00221591
Time = 0.14017

PIMPLE: iteration 1
MULES: Solving for alpha.water
Phase-1 volume fraction = 0.25  Min(alpha.water) = 7.35112e-89  Max(alpha.water) = 1
MULES: Solving for alpha.water
Phase-1 volume fraction = 0.25  Min(alpha.water) = 2.11245e-88  Max(alpha.water) = 1
DICPCG:  Solving for p_rgh, Initial residual = 0.0981576, Final residual = 0.00448312, No Iterations 7
time step continuity errors : sum local = 1.3495e-05, global = -1.46324e-19, cumulative = -2.48412e-19
DICPCG:  Solving for p_rgh, Initial residual = 0.0201534, Final residual = 0.000703431, No Iterations 21
time step continuity errors : sum local = 2.32494e-06, global = -7.89323e-20, cumulative = -3.27344e-19
DICPCG:  Solving for p_rgh, Initial residual = 0.00293308, Final residual = 8.31805e-08, No Iterations 91
time step continuity errors : sum local = 2.318e-10, global = -3.96094e-20, cumulative = -3.66953e-19
ExecutionTime = 5.75 s  ClockTime = 7 s

Courant Number mean: 0.0819295 max: 0.502835
Interface Courant Number mean: 0.012297 max: 0.497731
deltaT = 0.00213677
Time = 0.142307

PIMPLE: iteration 1
MULES: Solving for alpha.water
Phase-1 volume fraction = 0.25  Min(alpha.water) = 5.91637e-88  Max(alpha.water) = 1
MULES: Solving for alpha.water
Phase-1 volume fraction = 0.25  Min(alpha.water) = 1.61555e-87  Max(alpha.water) = 1
DICPCG:  Solving for p_rgh, Initial residual = 0.104603, Final residual = 0.00500744, No Iterations 7
time step continuity errors : sum local = 1.40413e-05, global = -1.49836e-20, cumulative = -3.81937e-19
DICPCG:  Solving for p_rgh, Initial residual = 0.0193405, Final residual = 0.000857713, No Iterations 25
time step continuity errors : sum local = 2.57665e-06, global = -2.53431e-20, cumulative = -4.0728e-19
DICPCG:  Solving for p_rgh, Initial residual = 0.00286345, Final residual = 9.36942e-08, No Iterations 90
time step continuity errors : sum local = 2.47227e-10, global = 6.27632e-20, cumulative = -3.44517e-19
ExecutionTime = 5.83 s  ClockTime = 7 s

Courant Number mean: 0.0793333 max: 0.487997
Interface Courant Number mean: 0.0116546 max: 0.481139
deltaT = 0.00213677
Time = 0.144444

PIMPLE: iteration 1
MULES: Solving for alpha.water
Phase-1 volume fraction = 0.25  Min(alpha.water) = 4.40375e-87  Max(alpha.water) = 1
MULES: Solving for alpha.water
Phase-1 volume fraction = 0.25  Min(alpha.water) = 1.17165e-86  Max(alpha.water) = 1
DICPCG:  Solving for p_rgh, Initial residual = 0.103877, Final residual = 0.00501796, No Iterations 7
time step continuity errors : sum local = 1.41668e-05, global = -2.53311e-20, cumulative = -3.69848e-19
DICPCG:  Solving for p_rgh, Initial residual = 0.0197119, Final residual = 0.000871847, No Iterations 21
time step continuity errors : sum local = 2.66867e-06, global = 1.35122e-20, cumulative = -3.56336e-19
DICPCG:  Solving for p_rgh, Initial residual = 0.00291929, Final residual = 7.97014e-08, No Iterations 91
time step continuity errors : sum local = 2.07818e-10, global = -3.49023e-20, cumulative = -3.91238e-19
ExecutionTime = 5.9 s  ClockTime = 8 s

Courant Number mean: 0.0796091 max: 0.490546
Interface Courant Number mean: 0.0119148 max: 0.482442
deltaT = 0.00213677
Time = 0.146581

PIMPLE: iteration 1
MULES: Solving for alpha.water
Phase-1 volume fraction = 0.25  Min(alpha.water) = 3.11084e-86  Max(alpha.water) = 1
MULES: Solving for alpha.water
Phase-1 volume fraction = 0.25  Min(alpha.water) = 8.0748e-86  Max(alpha.water) = 1
DICPCG:  Solving for p_rgh, Initial residual = 0.10594, Final residual = 0.00459639, No Iterations 8
time step continuity errors : sum local = 1.29261e-05, global = 2.54271e-20, cumulative = -3.65811e-19
DICPCG:  Solving for p_rgh, Initial residual = 0.0196688, Final residual = 0.000923949, No Iterations 27
time step continuity errors : sum local = 2.81485e-06, global = -2.22262e-20, cumulative = -3.88037e-19
DICPCG:  Solving for p_rgh, Initial residual = 0.00301842, Final residual = 8.05813e-08, No Iterations 92
time step continuity errors : sum local = 2.10094e-10, global = 8.60554e-20, cumulative = -3.01982e-19
ExecutionTime = 5.98 s  ClockTime = 8 s

Courant Number mean: 0.0799486 max: 0.492884
Interface Courant Number mean: 0.012051 max: 0.483619
deltaT = 0.00213677
Time = 0.148718

PIMPLE: iteration 1
MULES: Solving for alpha.water
Phase-1 volume fraction = 0.25  Min(alpha.water) = 2.09316e-85  Max(alpha.water) = 1
MULES: Solving for alpha.water
Phase-1 volume fraction = 0.25  Min(alpha.water) = 5.31276e-85  Max(alpha.water) = 1
DICPCG:  Solving for p_rgh, Initial residual = 0.110907, Final residual = 0.00478903, No Iterations 8
time step continuity errors : sum local = 1.34502e-05, global = 4.40621e-20, cumulative = -2.5792e-19
DICPCG:  Solving for p_rgh, Initial residual = 0.0197759, Final residual = 0.000948176, No Iterations 21
time step continuity errors : sum local = 2.89678e-06, global = 3.28619e-20, cumulative = -2.25058e-19
DICPCG:  Solving for p_rgh, Initial residual = 0.00295748, Final residual = 8.81912e-08, No Iterations 91
time step continuity errors : sum local = 2.29001e-10, global = 8.64547e-20, cumulative = -1.38603e-19
ExecutionTime = 6.05 s  ClockTime = 8 s

Courant Number mean: 0.0802196 max: 0.494663
Interface Courant Number mean: 0.0117328 max: 0.484661
deltaT = 0.00213677
Time = 0.150854

PIMPLE: iteration 1
MULES: Solving for alpha.water
Phase-1 volume fraction = 0.25  Min(alpha.water) = 1.34553e-84  Max(alpha.water) = 1
MULES: Solving for alpha.water
Phase-1 volume fraction = 0.25  Min(alpha.water) = 3.33987e-84  Max(alpha.water) = 1
DICPCG:  Solving for p_rgh, Initial residual = 0.113558, Final residual = 0.00498786, No Iterations 8
time step continuity errors : sum local = 1.40092e-05, global = -1.02285e-19, cumulative = -2.40888e-19
[...]
MULES: Solving for alpha.water
Phase-1 volume fraction = 0.25  Min(alpha.water) = -2.17941e-12  Max(alpha.water) = 0.990306
DICPCG:  Solving for p_rgh, Initial residual = 0.208368, Final residual = 0.0085601, No Iterations 4
time step continuity errors : sum local = 3.9364e-05, global = -7.01429e-21, cumulative = 1.77836e-18
DICPCG:  Solving for p_rgh, Initial residual = 0.0139331, Final residual = 0.000641831, No Iterations 26
time step continuity errors : sum local = 3.12937e-06, global = 1.03985e-20, cumulative = 1.78875e-18
DICPCG:  Solving for p_rgh, Initial residual = 0.00143472, Final residual = 9.25067e-08, No Iterations 89
time step continuity errors : sum local = 4.29256e-10, global = -3.45812e-20, cumulative = 1.75417e-18
ExecutionTime = 230.18 s  ClockTime = 311 s

Courant Number mean: 0.158348 max: 0.497548
Interface Courant Number mean: 0.0794665 max: 0.435314
deltaT = 0.00107554
Time = 3.98279

PIMPLE: iteration 1
MULES: Solving for alpha.water
Phase-1 volume fraction = 0.25  Min(alpha.water) = -6.05046e-10  Max(alpha.water) = 0.990306
MULES: Solving for alpha.water
Phase-1 volume fraction = 0.25  Min(alpha.water) = -5.56566e-10  Max(alpha.water) = 0.990306
DICPCG:  Solving for p_rgh, Initial residual = 0.20892, Final residual = 0.00862972, No Iterations 4
time step continuity errors : sum local = 3.96115e-05, global = -1.70803e-19, cumulative = 1.58337e-18
DICPCG:  Solving for p_rgh, Initial residual = 0.0143408, Final residual = 0.000683628, No Iterations 26
time step continuity errors : sum local = 3.28463e-06, global = -5.35159e-20, cumulative = 1.52986e-18
DICPCG:  Solving for p_rgh, Initial residual = 0.00148332, Final residual = 9.58918e-08, No Iterations 89
time step continuity errors : sum local = 4.36554e-10, global = 3.88132e-20, cumulative = 1.56867e-18
ExecutionTime = 230.25 s  ClockTime = 311 s

Courant Number mean: 0.158388 max: 0.502528
Interface Courant Number mean: 0.0800964 max: 0.431078
deltaT = 0.00101227
Time = 3.9838

PIMPLE: iteration 1
MULES: Solving for alpha.water
Phase-1 volume fraction = 0.25  Min(alpha.water) = -5.14297e-10  Max(alpha.water) = 0.990306
MULES: Solving for alpha.water
Phase-1 volume fraction = 0.25  Min(alpha.water) = -4.75238e-10  Max(alpha.water) = 0.990306
DICPCG:  Solving for p_rgh, Initial residual = 0.217387, Final residual = 0.00908866, No Iterations 4
time step continuity errors : sum local = 3.76626e-05, global = -1.70519e-19, cumulative = 1.39815e-18
DICPCG:  Solving for p_rgh, Initial residual = 0.0135488, Final residual = 0.0006693, No Iterations 26
time step continuity errors : sum local = 3.02894e-06, global = 2.01906e-19, cumulative = 1.60006e-18
DICPCG:  Solving for p_rgh, Initial residual = 0.00135414, Final residual = 8.33266e-08, No Iterations 89
time step continuity errors : sum local = 3.54839e-10, global = 1.13004e-19, cumulative = 1.71306e-18
ExecutionTime = 230.33 s  ClockTime = 311 s

Courant Number mean: 0.149132 max: 0.474604
Interface Courant Number mean: 0.0753928 max: 0.404406
deltaT = 0.00101227
Time = 3.98482

PIMPLE: iteration 1
MULES: Solving for alpha.water
Phase-1 volume fraction = 0.25  Min(alpha.water) = -4.38912e-10  Max(alpha.water) = 0.990306
MULES: Solving for alpha.water
Phase-1 volume fraction = 0.25  Min(alpha.water) = -4.05362e-10  Max(alpha.water) = 0.990306
DICPCG:  Solving for p_rgh, Initial residual = 0.213833, Final residual = 0.00911034, No Iterations 4
time step continuity errors : sum local = 3.82758e-05, global = 1.66377e-20, cumulative = 1.7297e-18
DICPCG:  Solving for p_rgh, Initial residual = 0.0141613, Final residual = 0.000631239, No Iterations 27
time step continuity errors : sum local = 2.83687e-06, global = 1.41545e-19, cumulative = 1.87124e-18
DICPCG:  Solving for p_rgh, Initial residual = 0.00135667, Final residual = 9.54065e-08, No Iterations 91
time step continuity errors : sum local = 3.97332e-10, global = -1.0753e-19, cumulative = 1.76371e-18
ExecutionTime = 230.4 s  ClockTime = 311 s

Courant Number mean: 0.149159 max: 0.480257
Interface Courant Number mean: 0.0750477 max: 0.375437
deltaT = 0.00101227
Time = 3.98583

PIMPLE: iteration 1
MULES: Solving for alpha.water
Phase-1 volume fraction = 0.25  Min(alpha.water) = -3.74156e-10  Max(alpha.water) = 0.990268
MULES: Solving for alpha.water
Phase-1 volume fraction = 0.25  Min(alpha.water) = -3.45352e-10  Max(alpha.water) = 0.990268
DICPCG:  Solving for p_rgh, Initial residual = 0.213355, Final residual = 0.00932743, No Iterations 4
time step continuity errors : sum local = 3.90898e-05, global = 2.01655e-20, cumulative = 1.78388e-18
DICPCG:  Solving for p_rgh, Initial residual = 0.0140474, Final residual = 0.000626066, No Iterations 27
time step continuity errors : sum local = 2.87226e-06, global = 1.63418e-19, cumulative = 1.9473e-18
DICPCG:  Solving for p_rgh, Initial residual = 0.0013463, Final residual = 7.673e-08, No Iterations 89
time step continuity errors : sum local = 3.25163e-10, global = -3.07603e-20, cumulative = 1.91654e-18
ExecutionTime = 230.48 s  ClockTime = 311 s

Courant Number mean: 0.149217 max: 0.480697
Interface Courant Number mean: 0.0752525 max: 0.37548
deltaT = 0.00101227
Time = 3.98684

PIMPLE: iteration 1
MULES: Solving for alpha.water
Phase-1 volume fraction = 0.25  Min(alpha.water) = -3.18595e-10  Max(alpha.water) = 0.990268
MULES: Solving for alpha.water
Phase-1 volume fraction = 0.25  Min(alpha.water) = -2.9391e-10  Max(alpha.water) = 0.990268
DICPCG:  Solving for p_rgh, Initial residual = 0.214365, Final residual = 0.00948108, No Iterations 4
time step continuity errors : sum local = 3.95504e-05, global = -1.09124e-19, cumulative = 1.80741e-18
DICPCG:  Solving for p_rgh, Initial residual = 0.0144293, Final residual = 0.000660603, No Iterations 27
time step continuity errors : sum local = 2.97019e-06, global = 8.51916e-20, cumulative = 1.8926e-18
DICPCG:  Solving for p_rgh, Initial residual = 0.00140723, Final residual = 9.39342e-08, No Iterations 90
time step continuity errors : sum local = 3.89134e-10, global = -5.29174e-20, cumulative = 1.83969e-18
ExecutionTime = 230.55 s  ClockTime = 311 s

Courant Number mean: 0.14924 max: 0.485167
Interface Courant Number mean: 0.0748214 max: 0.371018
deltaT = 0.00101227
Time = 3.98785

PIMPLE: iteration 1
MULES: Solving for alpha.water
Phase-1 volume fraction = 0.25  Min(alpha.water) = -2.70978e-10  Max(alpha.water) = 0.990268
MULES: Solving for alpha.water
Phase-1 volume fraction = 0.25  Min(alpha.water) = -2.49835e-10  Max(alpha.water) = 0.990268
DICPCG:  Solving for p_rgh, Initial residual = 0.214716, Final residual = 0.0096205, No Iterations 4
time step continuity errors : sum local = 4.01263e-05, global = -2.61901e-19, cumulative = 1.57778e-18
DICPCG:  Solving for p_rgh, Initial residual = 0.014342, Final residual = 0.000642022, No Iterations 27
time step continuity errors : sum local = 2.94414e-06, global = -1.92642e-19, cumulative = 1.38514e-18
DICPCG:  Solving for p_rgh, Initial residual = 0.00136794, Final residual = 7.54242e-08, No Iterations 89
time step continuity errors : sum local = 3.18171e-10, global = 6.26175e-20, cumulative = 1.44776e-18
ExecutionTime = 230.62 s  ClockTime = 311 s

Courant Number mean: 0.149293 max: 0.484337
Interface Courant Number mean: 0.0738602 max: 0.371067
deltaT = 0.00101227
Time = 3.98887

PIMPLE: iteration 1
MULES: Solving for alpha.water
Phase-1 volume fraction = 0.25  Min(alpha.water) = -2.30217e-10  Max(alpha.water) = 0.990268
MULES: Solving for alpha.water
Phase-1 volume fraction = 0.25  Min(alpha.water) = -2.1214e-10  Max(alpha.water) = 0.990268
DICPCG:  Solving for p_rgh, Initial residual = 0.215822, Final residual = 0.00987722, No Iterations 4
time step continuity errors : sum local = 4.10453e-05, global = -3.80093e-20, cumulative = 1.40975e-18
DICPCG:  Solving for p_rgh, Initial residual = 0.014765, Final residual = 0.000685236, No Iterations 27
time step continuity errors : sum local = 3.07465e-06, global = 9.4045e-20, cumulative = 1.5038e-18
DICPCG:  Solving for p_rgh, Initial residual = 0.00144999, Final residual = 8.14984e-08, No Iterations 90
time step continuity errors : sum local = 3.35642e-10, global = 1.93609e-19, cumulative = 1.6974e-18
ExecutionTime = 230.7 s  ClockTime = 312 s

Courant Number mean: 0.149316 max: 0.487961
Interface Courant Number mean: 0.0742012 max: 0.366589
deltaT = 0.00101227
Time = 3.98988

PIMPLE: iteration 1
MULES: Solving for alpha.water
Phase-1 volume fraction = 0.25  Min(alpha.water) = -9.54174e-10  Max(alpha.water) = 0.990268
MULES: Solving for alpha.water
Phase-1 volume fraction = 0.25  Min(alpha.water) = -4.58572e-10  Max(alpha.water) = 0.990268
DICPCG:  Solving for p_rgh, Initial residual = 0.216125, Final residual = 0.00999778, No Iterations 4
time step continuity errors : sum local = 4.14935e-05, global = 1.94602e-20, cumulative = 1.71686e-18
DICPCG:  Solving for p_rgh, Initial residual = 0.0147049, Final residual = 0.000646566, No Iterations 27
time step continuity errors : sum local = 2.94041e-06, global = -1.0365e-19, cumulative = 1.61322e-18
DICPCG:  Solving for p_rgh, Initial residual = 0.00140039, Final residual = 7.16023e-08, No Iterations 89
time step continuity errors : sum local = 2.99939e-10, global = -8.06392e-20, cumulative = 1.53258e-18
ExecutionTime = 230.77 s  ClockTime = 312 s

Courant Number mean: 0.149371 max: 0.486325
Interface Courant Number mean: 0.0747755 max: 0.366812
deltaT = 0.00101227
Time = 3.99089

PIMPLE: iteration 1
MULES: Solving for alpha.water
Phase-1 volume fraction = 0.25  Min(alpha.water) = -4.23886e-09  Max(alpha.water) = 0.990268
MULES: Solving for alpha.water
Phase-1 volume fraction = 0.25  Min(alpha.water) = -1.52437e-10  Max(alpha.water) = 0.990268
DICPCG:  Solving for p_rgh, Initial residual = 0.216749, Final residual = 0.0102025, No Iterations 4
time step continuity errors : sum local = 4.21089e-05, global = -2.27598e-20, cumulative = 1.50982e-18
DICPCG:  Solving for p_rgh, Initial residual = 0.0151092, Final residual = 0.000673758, No Iterations 27
time step continuity errors : sum local = 3.00302e-06, global = 7.24228e-20, cumulative = 1.58224e-18
DICPCG:  Solving for p_rgh, Initial residual = 0.00146092, Final residual = 8.40939e-08, No Iterations 89
time step continuity errors : sum local = 3.42071e-10, global = 1.36447e-20, cumulative = 1.59588e-18
ExecutionTime = 230.85 s  ClockTime = 312 s

Courant Number mean: 0.149394 max: 0.489091
Interface Courant Number mean: 0.0750454 max: 0.362379
deltaT = 0.00101227
Time = 3.9919

PIMPLE: iteration 1
MULES: Solving for alpha.water
Phase-1 volume fraction = 0.25  Min(alpha.water) = 1.51453e-19  Max(alpha.water) = 0.990261
MULES: Solving for alpha.water
Phase-1 volume fraction = 0.25  Min(alpha.water) = 1.51454e-19  Max(alpha.water) = 0.990237
DICPCG:  Solving for p_rgh, Initial residual = 0.216416, Final residual = 0.0102401, No Iterations 4
time step continuity errors : sum local = 4.22554e-05, global = 1.41109e-21, cumulative = 1.59729e-18
DICPCG:  Solving for p_rgh, Initial residual = 0.0148611, Final residual = 0.000720657, No Iterations 26
time step continuity errors : sum local = 3.20002e-06, global = 9.9257e-20, cumulative = 1.69655e-18
DICPCG:  Solving for p_rgh, Initial residual = 0.00145311, Final residual = 8.85357e-08, No Iterations 89
time step continuity errors : sum local = 3.70197e-10, global = 2.23755e-19, cumulative = 1.92031e-18
ExecutionTime = 230.92 s  ClockTime = 312 s

Courant Number mean: 0.149448 max: 0.486845
Interface Courant Number mean: 0.0748411 max: 0.372764
deltaT = 0.00101227
Time = 3.99291

PIMPLE: iteration 1
MULES: Solving for alpha.water
Phase-1 volume fraction = 0.25  Min(alpha.water) = -2.01988e-10  Max(alpha.water) = 0.990064
MULES: Solving for alpha.water
Phase-1 volume fraction = 0.25  Min(alpha.water) = 4.61756e-18  Max(alpha.water) = 0.989544
DICPCG:  Solving for p_rgh, Initial residual = 0.216521, Final residual = 0.0104843, No Iterations 4
time step continuity errors : sum local = 4.30534e-05, global = -2.48427e-19, cumulative = 1.67188e-18
DICPCG:  Solving for p_rgh, Initial residual = 0.0153818, Final residual = 0.000633795, No Iterations 27
time step continuity errors : sum local = 2.81644e-06, global = 1.93325e-19, cumulative = 1.8652e-18
DICPCG:  Solving for p_rgh, Initial residual = 0.00145472, Final residual = 8.79655e-08, No Iterations 89
time step continuity errors : sum local = 3.56377e-10, global = 6.96233e-20, cumulative = 1.93483e-18
ExecutionTime = 230.99 s  ClockTime = 312 s

Courant Number mean: 0.149471 max: 0.488948
Interface Courant Number mean: 0.0748106 max: 0.369593
deltaT = 0.00101227
Time = 3.99393

PIMPLE: iteration 1
MULES: Solving for alpha.water
Phase-1 volume fraction = 0.25  Min(alpha.water) = 4.61759e-18  Max(alpha.water) = 0.988502
MULES: Solving for alpha.water
Phase-1 volume fraction = 0.25  Min(alpha.water) = 4.61761e-18  Max(alpha.water) = 0.986721
DICPCG:  Solving for p_rgh, Initial residual = 0.217244, Final residual = 0.0106622, No Iterations 4
time step continuity errors : sum local = 4.38008e-05, global = -1.19263e-19, cumulative = 1.81556e-18
DICPCG:  Solving for p_rgh, Initial residual = 0.015113, Final residual = 0.000706074, No Iterations 26
time step continuity errors : sum local = 3.13634e-06, global = -2.1019e-19, cumulative = 1.60537e-18
DICPCG:  Solving for p_rgh, Initial residual = 0.00144859, Final residual = 9.97325e-08, No Iterations 88
time step continuity errors : sum local = 4.1578e-10, global = 1.50103e-19, cumulative = 1.75548e-18
ExecutionTime = 231.07 s  ClockTime = 312 s

Courant Number mean: 0.149519 max: 0.486477
Interface Courant Number mean: 0.0750066 max: 0.371468
deltaT = 0.00101227
Time = 3.99494

PIMPLE: iteration 1
MULES: Solving for alpha.water
Phase-1 volume fraction = 0.25  Min(alpha.water) = 4.61763e-18  Max(alpha.water) = 0.984112
MULES: Solving for alpha.water
Phase-1 volume fraction = 0.25  Min(alpha.water) = 4.61765e-18  Max(alpha.water) = 0.980596
DICPCG:  Solving for p_rgh, Initial residual = 0.216964, Final residual = 0.0107118, No Iterations 4
time step continuity errors : sum local = 4.39088e-05, global = -1.1289e-19, cumulative = 1.64259e-18
DICPCG:  Solving for p_rgh, Initial residual = 0.0155793, Final residual = 0.000708763, No Iterations 26
time step continuity errors : sum local = 3.07093e-06, global = 6.36601e-20, cumulative = 1.70625e-18
DICPCG:  Solving for p_rgh, Initial residual = 0.00150005, Final residual = 9.20976e-08, No Iterations 87
time step continuity errors : sum local = 3.7337e-10, global = -1.68653e-20, cumulative = 1.68938e-18
ExecutionTime = 231.14 s  ClockTime = 312 s

Courant Number mean: 0.14954 max: 0.488249
Interface Courant Number mean: 0.0746245 max: 0.367777
deltaT = 0.00101227
Time = 3.99595

PIMPLE: iteration 1
MULES: Solving for alpha.water
Phase-1 volume fraction = 0.25  Min(alpha.water) = 4.61766e-18  Max(alpha.water) = 0.976028
MULES: Solving for alpha.water
Phase-1 volume fraction = 0.25  Min(alpha.water) = -3.79703e-13  Max(alpha.water) = 0.974817
DICPCG:  Solving for p_rgh, Initial residual = 0.217746, Final residual = 0.0103419, No Iterations 5
time step continuity errors : sum local = 4.24075e-05, global = -1.4373e-19, cumulative = 1.54565e-18
DICPCG:  Solving for p_rgh, Initial residual = 0.0150627, Final residual = 0.000664394, No Iterations 25
time step continuity errors : sum local = 2.92843e-06, global = -1.88033e-19, cumulative = 1.35762e-18
DICPCG:  Solving for p_rgh, Initial residual = 0.00140058, Final residual = 9.00989e-08, No Iterations 89
time step continuity errors : sum local = 3.74901e-10, global = -2.68968e-20, cumulative = 1.33072e-18
ExecutionTime = 231.22 s  ClockTime = 312 s

Courant Number mean: 0.14958 max: 0.485988
Interface Courant Number mean: 0.0751493 max: 0.371336
deltaT = 0.00101227
Time = 3.99696

PIMPLE: iteration 1
MULES: Solving for alpha.water
Phase-1 volume fraction = 0.25  Min(alpha.water) = 4.61781e-18  Max(alpha.water) = 0.974818
MULES: Solving for alpha.water
Phase-1 volume fraction = 0.25  Min(alpha.water) = 4.61781e-18  Max(alpha.water) = 0.974818
DICPCG:  Solving for p_rgh, Initial residual = 0.218527, Final residual = 0.01061, No Iterations 5
time step continuity errors : sum local = 4.35313e-05, global = -8.49864e-20, cumulative = 1.24574e-18
DICPCG:  Solving for p_rgh, Initial residual = 0.0158104, Final residual = 0.000781512, No Iterations 24
time step continuity errors : sum local = 3.29755e-06, global = -1.41113e-21, cumulative = 1.24432e-18
DICPCG:  Solving for p_rgh, Initial residual = 0.0015043, Final residual = 8.31031e-08, No Iterations 92
time step continuity errors : sum local = 3.36548e-10, global = 2.43169e-19, cumulative = 1.48749e-18
ExecutionTime = 231.29 s  ClockTime = 312 s

Courant Number mean: 0.149595 max: 0.487506
Interface Courant Number mean: 0.0751745 max: 0.382796
deltaT = 0.00101227
Time = 3.99798

PIMPLE: iteration 1
MULES: Solving for alpha.water
Phase-1 volume fraction = 0.25  Min(alpha.water) = 4.61781e-18  Max(alpha.water) = 0.974826
MULES: Solving for alpha.water
Phase-1 volume fraction = 0.25  Min(alpha.water) = 4.61781e-18  Max(alpha.water) = 0.974826
DICPCG:  Solving for p_rgh, Initial residual = 0.219223, Final residual = 0.0107466, No Iterations 5
time step continuity errors : sum local = 4.41187e-05, global = -4.05586e-20, cumulative = 1.44694e-18
DICPCG:  Solving for p_rgh, Initial residual = 0.0155688, Final residual = 0.000745879, No Iterations 23
time step continuity errors : sum local = 3.21225e-06, global = -5.66763e-21, cumulative = 1.44127e-18
DICPCG:  Solving for p_rgh, Initial residual = 0.00146101, Final residual = 8.12701e-08, No Iterations 93
time step continuity errors : sum local = 3.38332e-10, global = -2.17587e-20, cumulative = 1.41951e-18
ExecutionTime = 231.37 s  ClockTime = 312 s

Courant Number mean: 0.149628 max: 0.48563
Interface Courant Number mean: 0.0746281 max: 0.381199
deltaT = 0.00101227
Time = 3.99899

PIMPLE: iteration 1
MULES: Solving for alpha.water
Phase-1 volume fraction = 0.25  Min(alpha.water) = 4.61804e-18  Max(alpha.water) = 0.974836
MULES: Solving for alpha.water
Phase-1 volume fraction = 0.25  Min(alpha.water) = -1.67637e-10  Max(alpha.water) = 0.974844
DICPCG:  Solving for p_rgh, Initial residual = 0.218508, Final residual = 0.00845665, No Iterations 6
time step continuity errors : sum local = 3.48384e-05, global = 5.86302e-20, cumulative = 1.47814e-18
DICPCG:  Solving for p_rgh, Initial residual = 0.014439, Final residual = 0.000669849, No Iterations 23
time step continuity errors : sum local = 2.81172e-06, global = 2.23527e-19, cumulative = 1.70167e-18
DICPCG:  Solving for p_rgh, Initial residual = 0.00140434, Final residual = 7.95832e-08, No Iterations 91
time step continuity errors : sum local = 3.23089e-10, global = 2.01427e-20, cumulative = 1.72181e-18
ExecutionTime = 231.44 s  ClockTime = 312 s

Courant Number mean: 0.149642 max: 0.486976
Interface Courant Number mean: 0.0750905 max: 0.395296
deltaT = 0.00101227
Time = 4

PIMPLE: iteration 1
MULES: Solving for alpha.water
Phase-1 volume fraction = 0.25  Min(alpha.water) = 5.23978e-18  Max(alpha.water) = 0.974844
MULES: Solving for alpha.water
Phase-1 volume fraction = 0.25  Min(alpha.water) = 5.24109e-18  Max(alpha.water) = 0.974844
DICPCG:  Solving for p_rgh, Initial residual = 0.21831, Final residual = 0.00837787, No Iterations 6
time step continuity errors : sum local = 3.45457e-05, global = 1.94736e-19, cumulative = 1.91655e-18
DICPCG:  Solving for p_rgh, Initial residual = 0.0139504, Final residual = 0.000695525, No Iterations 22
time step continuity errors : sum local = 2.94907e-06, global = 2.40577e-20, cumulative = 1.9406e-18
DICPCG:  Solving for p_rgh, Initial residual = 0.00141336, Final residual = 8.49505e-08, No Iterations 92
time step continuity errors : sum local = 3.54602e-10, global = -9.86425e-20, cumulative = 1.84196e-18
ExecutionTime = 231.86 s  ClockTime = 313 s

End

