/*---------------------------------------------------------------------------*\
| =========                 |                                                 |
| \\      /  F ield         | OpenFOAM: The Open Source CFD Toolbox           |
|  \\    /   O peration     | Version:  2.4.0                                 |
|   \\  /    A nd           | Web:      www.OpenFOAM.org                      |
|    \\/     M anipulation  |                                                 |
\*---------------------------------------------------------------------------*/
Build  : 2.4.0-dcea1e13ff76
Exec   : interFoam
Date   : Oct 24 2016
Time   : 15:37:08
Host   : "g05-012"
PID    : 21383
Case   : /work/job.5451954/mixerVessel2D
nProcs : 1
fileModificationChecking : Monitoring run-time modified files using timeStampMaster
allowSystemOperations : Allowing user-supplied system call operations

// * * * * * * * * * * * * * * * * * * * * * * * * * * * * * * * * * * * * * //
Create time

Create mesh for time = 0


PIMPLE: Operating solver in PISO mode

Reading field p_rgh

Reading field U

Reading/calculating face flux field phi

Reading transportProperties

Selecting incompressible transport model Newtonian
Selecting incompressible transport model Newtonian
Selecting turbulence model type laminar

Reading g
Calculating field g.h

Creating finite volume options from "constant/fvOptions"

Selecting finite volume options model type MRFSource
    Source: MRF1
    - applying source for all time
    - selecting cells using cellZone rotor
    - selected 1536 cell(s) with volume 0.000100459

time step continuity errors : sum local = 0, global = 0, cumulative = 0
DICPCG:  Solving for pcorr, Initial residual = 0, Final residual = 0, No Iterations 0
time step continuity errors : sum local = 0, global = 0, cumulative = 0
Courant Number mean: 0 max: 0

Starting time loop

Courant Number mean: 0 max: 0
Interface Courant Number mean: 0 max: 0
deltaT = 0.00119048
Time = 0.00119048

PIMPLE: iteration 1
MULES: Solving for alpha.water
Phase-1 volume fraction = 0.25  Min(alpha.water) = 0  Max(alpha.water) = 1
MULES: Solving for alpha.water
Phase-1 volume fraction = 0.25  Min(alpha.water) = 0  Max(alpha.water) = 1
DICPCG:  Solving for p_rgh, Initial residual = 1, Final residual = 0.048601, No Iterations 62
time step continuity errors : sum local = 0.000102133, global = -7.95953e-21, cumulative = -7.95953e-21
DICPCG:  Solving for p_rgh, Initial residual = 0.0523991, Final residual = 0.0023811, No Iterations 34
time step continuity errors : sum local = 1.3342e-05, global = -6.92129e-20, cumulative = -7.71725e-20
DICPCG:  Solving for p_rgh, Initial residual = 0.00352776, Final residual = 8.8517e-08, No Iterations 93
time step continuity errors : sum local = 3.91303e-10, global = 2.28783e-20, cumulative = -5.42942e-20
ExecutionTime = 0.34 s  ClockTime = 1 s

Courant Number mean: 0.0335791 max: 0.344144
Interface Courant Number mean: 0 max: 0
deltaT = 0.00135582
Time = 0.0025463

PIMPLE: iteration 1
MULES: Solving for alpha.water
Phase-1 volume fraction = 0.25  Min(alpha.water) = 0  Max(alpha.water) = 1
MULES: Solving for alpha.water
Phase-1 volume fraction = 0.25  Min(alpha.water) = 0  Max(alpha.water) = 1
DICPCG:  Solving for p_rgh, Initial residual = 0.652638, Final residual = 0.0309217, No Iterations 60
time step continuity errors : sum local = 0.000142765, global = 5.29909e-20, cumulative = -1.30327e-21
DICPCG:  Solving for p_rgh, Initial residual = 0.0671157, Final residual = 0.00281416, No Iterations 29
time step continuity errors : sum local = 9.5151e-06, global = 6.62107e-20, cumulative = 6.49075e-20
DICPCG:  Solving for p_rgh, Initial residual = 0.00597719, Final residual = 9.12593e-08, No Iterations 96
time step continuity errors : sum local = 2.66552e-10, global = 1.75365e-20, cumulative = 8.2444e-20
ExecutionTime = 0.43 s  ClockTime = 1 s

Courant Number mean: 0.0383958 max: 0.412384
Interface Courant Number mean: 0.000729883 max: 0.39951
deltaT = 0.00148293
Time = 0.00402922

PIMPLE: iteration 1
MULES: Solving for alpha.water
Phase-1 volume fraction = 0.25  Min(alpha.water) = 0  Max(alpha.water) = 1
MULES: Solving for alpha.water
Phase-1 volume fraction = 0.25  Min(alpha.water) = 0  Max(alpha.water) = 1
DICPCG:  Solving for p_rgh, Initial residual = 0.357998, Final residual = 0.0095506, No Iterations 10
time step continuity errors : sum local = 2.77703e-05, global = 5.64814e-20, cumulative = 1.38925e-19
DICPCG:  Solving for p_rgh, Initial residual = 0.0320403, Final residual = 0.00157423, No Iterations 25
time step continuity errors : sum local = 3.70597e-06, global = -5.86914e-20, cumulative = 8.02339e-20
DICPCG:  Solving for p_rgh, Initial residual = 0.00470247, Final residual = 8.0335e-08, No Iterations 94
time step continuity errors : sum local = 1.80212e-10, global = 9.11874e-20, cumulative = 1.71421e-19
ExecutionTime = 0.51 s  ClockTime = 1 s

Courant Number mean: 0.0417454 max: 0.453196
Interface Courant Number mean: 0.000784582 max: 0.424297
deltaT = 0.0015852
Time = 0.00561442

PIMPLE: iteration 1
MULES: Solving for alpha.water
Phase-1 volume fraction = 0.25  Min(alpha.water) = 0  Max(alpha.water) = 1
MULES: Solving for alpha.water
Phase-1 volume fraction = 0.25  Min(alpha.water) = 0  Max(alpha.water) = 1
DICPCG:  Solving for p_rgh, Initial residual = 0.19387, Final residual = 0.00924053, No Iterations 8
time step continuity errors : sum local = 2.17959e-05, global = -1.01657e-20, cumulative = 1.61256e-19
DICPCG:  Solving for p_rgh, Initial residual = 0.0263891, Final residual = 0.00106764, No Iterations 15
time step continuity errors : sum local = 2.47851e-06, global = 6.03071e-20, cumulative = 2.21563e-19
DICPCG:  Solving for p_rgh, Initial residual = 0.00445199, Final residual = 8.87909e-08, No Iterations 92
time step continuity errors : sum local = 1.84761e-10, global = -9.72152e-20, cumulative = 1.24348e-19
ExecutionTime = 0.58 s  ClockTime = 1 s

Courant Number mean: 0.0443901 max: 0.481455
Interface Courant Number mean: 0.00116197 max: 0.438479
deltaT = 0.00164391
Time = 0.00725833

PIMPLE: iteration 1
MULES: Solving for alpha.water
Phase-1 volume fraction = 0.25  Min(alpha.water) = 0  Max(alpha.water) = 1
MULES: Solving for alpha.water
Phase-1 volume fraction = 0.25  Min(alpha.water) = 0  Max(alpha.water) = 1
DICPCG:  Solving for p_rgh, Initial residual = 0.128651, Final residual = 0.00578044, No Iterations 2
time step continuity errors : sum local = 1.21826e-05, global = -2.18155e-21, cumulative = 1.22166e-19
DICPCG:  Solving for p_rgh, Initial residual = 0.019301, Final residual = 0.000838781, No Iterations 19
time step continuity errors : sum local = 1.6891e-06, global = -1.41054e-20, cumulative = 1.08061e-19
DICPCG:  Solving for p_rgh, Initial residual = 0.00382838, Final residual = 7.43358e-08, No Iterations 92
time step continuity errors : sum local = 1.45658e-10, global = 1.59081e-20, cumulative = 1.23969e-19
ExecutionTime = 0.65 s  ClockTime = 1 s

Courant Number mean: 0.0457837 max: 0.495081
Interface Courant Number mean: 0.00147015 max: 0.350553
deltaT = 0.00164391
Time = 0.00890224

PIMPLE: iteration 1
MULES: Solving for alpha.water
Phase-1 volume fraction = 0.25  Min(alpha.water) = 0  Max(alpha.water) = 1
MULES: Solving for alpha.water
Phase-1 volume fraction = 0.25  Min(alpha.water) = 0  Max(alpha.water) = 1
DICPCG:  Solving for p_rgh, Initial residual = 0.0954779, Final residual = 0.00425482, No Iterations 2
time step continuity errors : sum local = 8.09134e-06, global = 5.48009e-20, cumulative = 1.7877e-19
DICPCG:  Solving for p_rgh, Initial residual = 0.0174515, Final residual = 0.000814985, No Iterations 20
time step continuity errors : sum local = 1.53234e-06, global = 2.25046e-20, cumulative = 2.01274e-19
DICPCG:  Solving for p_rgh, Initial residual = 0.00330811, Final residual = 9.07899e-08, No Iterations 92
time step continuity errors : sum local = 1.65008e-10, global = 1.18035e-19, cumulative = 3.19309e-19
ExecutionTime = 0.72 s  ClockTime = 1 s

Courant Number mean: 0.0455409 max: 0.48978
Interface Courant Number mean: 0.00136311 max: 0.352938
deltaT = 0.00164391
Time = 0.0105462

PIMPLE: iteration 1
MULES: Solving for alpha.water
Phase-1 volume fraction = 0.25  Min(alpha.water) = 0  Max(alpha.water) = 1
MULES: Solving for alpha.water
Phase-1 volume fraction = 0.25  Min(alpha.water) = 0  Max(alpha.water) = 1
DICPCG:  Solving for p_rgh, Initial residual = 0.0779776, Final residual = 0.00375205, No Iterations 2
time step continuity errors : sum local = 6.6713e-06, global = 1.52494e-20, cumulative = 3.34559e-19
DICPCG:  Solving for p_rgh, Initial residual = 0.0158792, Final residual = 0.000733953, No Iterations 15
time step continuity errors : sum local = 1.371e-06, global = 1.5438e-19, cumulative = 4.88938e-19
DICPCG:  Solving for p_rgh, Initial residual = 0.0029363, Final residual = 9.77909e-08, No Iterations 92
time step continuity errors : sum local = 1.67228e-10, global = -2.04336e-20, cumulative = 4.68505e-19
ExecutionTime = 0.79 s  ClockTime = 1 s

Courant Number mean: 0.0453289 max: 0.483871
Interface Courant Number mean: 0.00126554 max: 0.353053
deltaT = 0.00164391
Time = 0.0121901

PIMPLE: iteration 1
MULES: Solving for alpha.water
Phase-1 volume fraction = 0.25  Min(alpha.water) = 0  Max(alpha.water) = 1
MULES: Solving for alpha.water
Phase-1 volume fraction = 0.25  Min(alpha.water) = 0  Max(alpha.water) = 1
DICPCG:  Solving for p_rgh, Initial residual = 0.0636657, Final residual = 0.00305527, No Iterations 2
time step continuity errors : sum local = 5.11069e-06, global = -8.76227e-21, cumulative = 4.59743e-19
DICPCG:  Solving for p_rgh, Initial residual = 0.0148215, Final residual = 0.000734467, No Iterations 16
time step continuity errors : sum local = 1.26408e-06, global = -7.5843e-20, cumulative = 3.83899e-19
DICPCG:  Solving for p_rgh, Initial residual = 0.00279765, Final residual = 4.89613e-08, No Iterations 91
time step continuity errors : sum local = 7.87752e-11, global = 3.07616e-20, cumulative = 4.14661e-19
ExecutionTime = 0.87 s  ClockTime = 1 s

Courant Number mean: 0.045144 max: 0.47833
Interface Courant Number mean: 0.00130174 max: 0.352331
deltaT = 0.00164391
Time = 0.013834

PIMPLE: iteration 1
MULES: Solving for alpha.water
Phase-1 volume fraction = 0.25  Min(alpha.water) = 0  Max(alpha.water) = 1
MULES: Solving for alpha.water
Phase-1 volume fraction = 0.25  Min(alpha.water) = 0  Max(alpha.water) = 1
DICPCG:  Solving for p_rgh, Initial residual = 0.0642902, Final residual = 0.00313847, No Iterations 2
time step continuity errors : sum local = 4.91467e-06, global = 1.26482e-19, cumulative = 5.41143e-19
DICPCG:  Solving for p_rgh, Initial residual = 0.0151955, Final residual = 0.000630448, No Iterations 23
time step continuity errors : sum local = 9.93707e-07, global = -1.60232e-20, cumulative = 5.2512e-19
DICPCG:  Solving for p_rgh, Initial residual = 0.00271122, Final residual = 9.54366e-08, No Iterations 89
time step continuity errors : sum local = 1.43077e-10, global = -7.56248e-20, cumulative = 4.49495e-19
ExecutionTime = 0.94 s  ClockTime = 2 s

Courant Number mean: 0.0450064 max: 0.473002
Interface Courant Number mean: 0.00164538 max: 0.350586
deltaT = 0.00172219
Time = 0.0155562

PIMPLE: iteration 1
MULES: Solving for alpha.water
Phase-1 volume fraction = 0.25  Min(alpha.water) = 0  Max(alpha.water) = 1
MULES: Solving for alpha.water
Phase-1 volume fraction = 0.25  Min(alpha.water) = 0  Max(alpha.water) = 1
DICPCG:  Solving for p_rgh, Initial residual = 0.0690454, Final residual = 0.00299407, No Iterations 2
time step continuity errors : sum local = 4.70061e-06, global = -6.24073e-20, cumulative = 3.87088e-19
DICPCG:  Solving for p_rgh, Initial residual = 0.0160083, Final residual = 0.000752671, No Iterations 12
time step continuity errors : sum local = 1.12676e-06, global = 6.64239e-20, cumulative = 4.53512e-19
DICPCG:  Solving for p_rgh, Initial residual = 0.00306465, Final residual = 8.61974e-08, No Iterations 94
time step continuity errors : sum local = 1.2784e-10, global = 3.58451e-20, cumulative = 4.89357e-19
ExecutionTime = 1.01 s  ClockTime = 2 s

Courant Number mean: 0.0470015 max: 0.489753
Interface Courant Number mean: 0.00161 max: 0.333203
deltaT = 0.00172219
Time = 0.0172784

PIMPLE: iteration 1
MULES: Solving for alpha.water
Phase-1 volume fraction = 0.25  Min(alpha.water) = 0  Max(alpha.water) = 1
MULES: Solving for alpha.water
Phase-1 volume fraction = 0.25  Min(alpha.water) = 0  Max(alpha.water) = 1
DICPCG:  Solving for p_rgh, Initial residual = 0.0573764, Final residual = 0.00236942, No Iterations 4
time step continuity errors : sum local = 3.44331e-06, global = -9.54822e-22, cumulative = 4.88402e-19
DICPCG:  Solving for p_rgh, Initial residual = 0.016082, Final residual = 0.000671811, No Iterations 9
time step continuity errors : sum local = 9.93352e-07, global = -1.61114e-20, cumulative = 4.72291e-19
DICPCG:  Solving for p_rgh, Initial residual = 0.00295703, Final residual = 9.9518e-08, No Iterations 92
time step continuity errors : sum local = 1.37837e-10, global = -1.2036e-20, cumulative = 4.60255e-19
ExecutionTime = 1.08 s  ClockTime = 2 s

Courant Number mean: 0.0468887 max: 0.483519
Interface Courant Number mean: 0.00156115 max: 0.327707
deltaT = 0.00172219
Time = 0.0190005

PIMPLE: iteration 1
MULES: Solving for alpha.water
Phase-1 volume fraction = 0.25  Min(alpha.water) = 0  Max(alpha.water) = 1
MULES: Solving for alpha.water
Phase-1 volume fraction = 0.25  Min(alpha.water) = 0  Max(alpha.water) = 1
DICPCG:  Solving for p_rgh, Initial residual = 0.0618667, Final residual = 0.00266833, No Iterations 3
time step continuity errors : sum local = 3.60026e-06, global = 6.06855e-20, cumulative = 5.2094e-19
DICPCG:  Solving for p_rgh, Initial residual = 0.0159524, Final residual = 0.000692495, No Iterations 21
time step continuity errors : sum local = 9.37248e-07, global = 3.97861e-20, cumulative = 5.60726e-19
DICPCG:  Solving for p_rgh, Initial residual = 0.00298063, Final residual = 8.29254e-08, No Iterations 91
time step continuity errors : sum local = 1.07243e-10, global = 8.58768e-20, cumulative = 6.46603e-19
ExecutionTime = 1.15 s  ClockTime = 2 s

Courant Number mean: 0.0468109 max: 0.476932
Interface Courant Number mean: 0.00154368 max: 0.328562
deltaT = 0.00172219
Time = 0.0207227

PIMPLE: iteration 1
MULES: Solving for alpha.water
Phase-1 volume fraction = 0.25  Min(alpha.water) = 0  Max(alpha.water) = 1
MULES: Solving for alpha.water
Phase-1 volume fraction = 0.25  Min(alpha.water) = 0  Max(alpha.water) = 1
DICPCG:  Solving for p_rgh, Initial residual = 0.0560643, Final residual = 0.00178441, No Iterations 3
time step continuity errors : sum local = 2.26442e-06, global = -8.05524e-20, cumulative = 5.66051e-19
DICPCG:  Solving for p_rgh, Initial residual = 0.0151379, Final residual = 0.000584167, No Iterations 7
time step continuity errors : sum local = 7.216e-07, global = -1.37563e-20, cumulative = 5.52294e-19
DICPCG:  Solving for p_rgh, Initial residual = 0.00266951, Final residual = 8.62316e-08, No Iterations 92
time step continuity errors : sum local = 1.05774e-10, global = 7.35348e-21, cumulative = 5.59648e-19
ExecutionTime = 1.22 s  ClockTime = 2 s

Courant Number mean: 0.0467416 max: 0.470055
Interface Courant Number mean: 0.00154699 max: 0.330653
deltaT = 0.00182983
Time = 0.0225526

PIMPLE: iteration 1
MULES: Solving for alpha.water
Phase-1 volume fraction = 0.25  Min(alpha.water) = 0  Max(alpha.water) = 1
MULES: Solving for alpha.water
Phase-1 volume fraction = 0.25  Min(alpha.water) = 0  Max(alpha.water) = 1
DICPCG:  Solving for p_rgh, Initial residual = 0.0663902, Final residual = 0.00330313, No Iterations 2
time step continuity errors : sum local = 4.39249e-06, global = 2.94481e-20, cumulative = 5.89096e-19
DICPCG:  Solving for p_rgh, Initial residual = 0.0163955, Final residual = 0.00079642, No Iterations 13
time step continuity errors : sum local = 1.02156e-06, global = -3.42719e-20, cumulative = 5.54824e-19
DICPCG:  Solving for p_rgh, Initial residual = 0.00323741, Final residual = 6.81061e-08, No Iterations 95
time step continuity errors : sum local = 8.69946e-11, global = -2.21476e-20, cumulative = 5.32676e-19
ExecutionTime = 1.29 s  ClockTime = 2 s

Courant Number mean: 0.0495856 max: 0.491147
Interface Courant Number mean: 0.00214771 max: 0.352693
deltaT = 0.00182983
Time = 0.0243824

PIMPLE: iteration 1
MULES: Solving for alpha.water
Phase-1 volume fraction = 0.25  Min(alpha.water) = 0  Max(alpha.water) = 1
MULES: Solving for alpha.water
Phase-1 volume fraction = 0.25  Min(alpha.water) = 0  Max(alpha.water) = 1
DICPCG:  Solving for p_rgh, Initial residual = 0.0534737, Final residual = 0.00246448, No Iterations 4
time step continuity errors : sum local = 3.10612e-06, global = -7.18937e-21, cumulative = 5.25487e-19
DICPCG:  Solving for p_rgh, Initial residual = 0.0163908, Final residual = 0.000729304, No Iterations 9
time step continuity errors : sum local = 9.21765e-07, global = -2.83676e-20, cumulative = 4.97119e-19
DICPCG:  Solving for p_rgh, Initial residual = 0.00292548, Final residual = 8.8394e-08, No Iterations 92
time step continuity errors : sum local = 1.08031e-10, global = -5.28939e-21, cumulative = 4.9183e-19
ExecutionTime = 1.36 s  ClockTime = 2 s

Courant Number mean: 0.0495391 max: 0.482033
Interface Courant Number mean: 0.00210554 max: 0.332044
deltaT = 0.00182983
Time = 0.0262122

PIMPLE: iteration 1
MULES: Solving for alpha.water
Phase-1 volume fraction = 0.25  Min(alpha.water) = 0  Max(alpha.water) = 1
MULES: Solving for alpha.water
Phase-1 volume fraction = 0.25  Min(alpha.water) = 0  Max(alpha.water) = 1
DICPCG:  Solving for p_rgh, Initial residual = 0.0515235, Final residual = 0.00247727, No Iterations 3
time step continuity errors : sum local = 2.9932e-06, global = -2.24445e-20, cumulative = 4.69386e-19
DICPCG:  Solving for p_rgh, Initial residual = 0.0154098, Final residual = 0.000695376, No Iterations 8
time step continuity errors : sum local = 8.49825e-07, global = -9.43333e-20, cumulative = 3.75052e-19
DICPCG:  Solving for p_rgh, Initial residual = 0.00282524, Final residual = 8.51688e-08, No Iterations 92
time step continuity errors : sum local = 1.00912e-10, global = -3.37925e-20, cumulative = 3.4126e-19
ExecutionTime = 1.43 s  ClockTime = 2 s

Courant Number mean: 0.0495048 max: 0.472277
Interface Courant Number mean: 0.00181889 max: 0.333437
deltaT = 0.00182983
Time = 0.0280421

PIMPLE: iteration 1
MULES: Solving for alpha.water
Phase-1 volume fraction = 0.25  Min(alpha.water) = 0  Max(alpha.water) = 1
MULES: Solving for alpha.water
Phase-1 volume fraction = 0.25  Min(alpha.water) = 0  Max(alpha.water) = 1
DICPCG:  Solving for p_rgh, Initial residual = 0.0486741, Final residual = 0.00234825, No Iterations 4
time step continuity errors : sum local = 2.77104e-06, global = 3.94348e-20, cumulative = 3.80695e-19
DICPCG:  Solving for p_rgh, Initial residual = 0.0155574, Final residual = 0.000755257, No Iterations 12
time step continuity errors : sum local = 9.02198e-07, global = 2.92999e-20, cumulative = 4.09995e-19
DICPCG:  Solving for p_rgh, Initial residual = 0.00275871, Final residual = 8.55831e-08, No Iterations 94
time step continuity errors : sum local = 9.88636e-11, global = 4.89671e-21, cumulative = 4.14891e-19
ExecutionTime = 1.5 s  ClockTime = 2 s

Courant Number mean: 0.0494849 max: 0.461782
Interface Courant Number mean: 0.00193931 max: 0.331823
deltaT = 0.00182983
Time = 0.0298719

PIMPLE: iteration 1
MULES: Solving for alpha.water
Phase-1 volume fraction = 0.25  Min(alpha.water) = 0  Max(alpha.water) = 1
MULES: Solving for alpha.water
Phase-1 volume fraction = 0.25  Min(alpha.water) = 0  Max(alpha.water) = 1
DICPCG:  Solving for p_rgh, Initial residual = 0.0472546, Final residual = 0.002302, No Iterations 4
time step continuity errors : sum local = 2.6486e-06, global = 1.13177e-20, cumulative = 4.26209e-19
DICPCG:  Solving for p_rgh, Initial residual = 0.0152103, Final residual = 0.000756384, No Iterations 19
time step continuity errors : sum local = 9.17242e-07, global = 1.56117e-20, cumulative = 4.41821e-19
DICPCG:  Solving for p_rgh, Initial residual = 0.00272277, Final residual = 8.55165e-08, No Iterations 92
time step continuity errors : sum local = 9.63706e-11, global = 6.83593e-21, cumulative = 4.48657e-19
ExecutionTime = 1.57 s  ClockTime = 2 s

Courant Number mean: 0.0494776 max: 0.450952
Interface Courant Number mean: 0.00200746 max: 0.330228
deltaT = 0.00201281
Time = 0.0318847

PIMPLE: iteration 1
MULES: Solving for alpha.water
Phase-1 volume fraction = 0.25  Min(alpha.water) = 0  Max(alpha.water) = 1
MULES: Solving for alpha.water
Phase-1 volume fraction = 0.25  Min(alpha.water) = 0  Max(alpha.water) = 1
DICPCG:  Solving for p_rgh, Initial residual = 0.0540578, Final residual = 0.00234564, No Iterations 4
time step continuity errors : sum local = 3.12122e-06, global = -5.05464e-20, cumulative = 3.9811e-19
DICPCG:  Solving for p_rgh, Initial residual = 0.0172495, Final residual = 0.000669819, No Iterations 14
time step continuity errors : sum local = 8.89212e-07, global = -3.47656e-20, cumulative = 3.63345e-19
DICPCG:  Solving for p_rgh, Initial residual = 0.00315573, Final residual = 9.16067e-08, No Iterations 92
time step continuity errors : sum local = 1.17083e-10, global = -1.72543e-19, cumulative = 1.90802e-19
ExecutionTime = 1.64 s  ClockTime = 2 s

Courant Number mean: 0.0544096 max: 0.482805
Interface Courant Number mean: 0.00253298 max: 0.360071
deltaT = 0.00201281
Time = 0.0338975

PIMPLE: iteration 1
MULES: Solving for alpha.water
Phase-1 volume fraction = 0.25  Min(alpha.water) = 0  Max(alpha.water) = 1
MULES: Solving for alpha.water
Phase-1 volume fraction = 0.25  Min(alpha.water) = 0  Max(alpha.water) = 1
DICPCG:  Solving for p_rgh, Initial residual = 0.0410796, Final residual = 0.00178333, No Iterations 7
time step continuity errors : sum local = 2.3292e-06, global = 6.01201e-21, cumulative = 1.96814e-19
DICPCG:  Solving for p_rgh, Initial residual = 0.0166793, Final residual = 0.000818447, No Iterations 8
time step continuity errors : sum local = 1.05093e-06, global = -3.00215e-20, cumulative = 1.66792e-19
DICPCG:  Solving for p_rgh, Initial residual = 0.00312337, Final residual = 8.04086e-08, No Iterations 92
time step continuity errors : sum local = 1.00892e-10, global = -1.55715e-20, cumulative = 1.51221e-19
ExecutionTime = 1.71 s  ClockTime = 2 s

Courant Number mean: 0.0544237 max: 0.46929
Interface Courant Number mean: 0.00227635 max: 0.357017
deltaT = 0.00201281
Time = 0.0359103

PIMPLE: iteration 1
MULES: Solving for alpha.water
Phase-1 volume fraction = 0.25  Min(alpha.water) = 0  Max(alpha.water) = 1
MULES: Solving for alpha.water
Phase-1 volume fraction = 0.25  Min(alpha.water) = 0  Max(alpha.water) = 1
DICPCG:  Solving for p_rgh, Initial residual = 0.0450507, Final residual = 0.00218991, No Iterations 9
time step continuity errors : sum local = 2.72236e-06, global = 6.34433e-20, cumulative = 2.14664e-19
DICPCG:  Solving for p_rgh, Initial residual = 0.01689, Final residual = 0.000754259, No Iterations 19
time step continuity errors : sum local = 9.73999e-07, global = -7.86757e-20, cumulative = 1.35988e-19
DICPCG:  Solving for p_rgh, Initial residual = 0.00303571, Final residual = 8.79138e-08, No Iterations 91
time step continuity errors : sum local = 1.06943e-10, global = 5.9804e-20, cumulative = 1.95792e-19
ExecutionTime = 1.79 s  ClockTime = 2 s

Courant Number mean: 0.0544382 max: 0.455856
Interface Courant Number mean: 0.00241695 max: 0.357242
deltaT = 0.00201281
Time = 0.0379231

PIMPLE: iteration 1
MULES: Solving for alpha.water
Phase-1 volume fraction = 0.25  Min(alpha.water) = 0  Max(alpha.water) = 1
MULES: Solving for alpha.water
Phase-1 volume fraction = 0.25  Min(alpha.water) = 0  Max(alpha.water) = 1
DICPCG:  Solving for p_rgh, Initial residual = 0.0456927, Final residual = 0.00205198, No Iterations 8
time step continuity errors : sum local = 2.51053e-06, global = 5.57615e-20, cumulative = 2.51554e-19
DICPCG:  Solving for p_rgh, Initial residual = 0.0163209, Final residual = 0.000807622, No Iterations 14
time step continuity errors : sum local = 9.79349e-07, global = -2.16381e-20, cumulative = 2.29916e-19
DICPCG:  Solving for p_rgh, Initial residual = 0.00286133, Final residual = 5.97294e-08, No Iterations 92
time step continuity errors : sum local = 7.12651e-11, global = 1.84124e-20, cumulative = 2.48328e-19
ExecutionTime = 1.86 s  ClockTime = 2 s

Courant Number mean: 0.0544638 max: 0.442709
Interface Courant Number mean: 0.00265968 max: 0.389069
deltaT = 0.00201281
Time = 0.0399359

PIMPLE: iteration 1
MULES: Solving for alpha.water
Phase-1 volume fraction = 0.25  Min(alpha.water) = 0  Max(alpha.water) = 1
MULES: Solving for alpha.water
Phase-1 volume fraction = 0.25  Min(alpha.water) = 0  Max(alpha.water) = 1
DICPCG:  Solving for p_rgh, Initial residual = 0.0453239, Final residual = 0.0021174, No Iterations 5
time step continuity errors : sum local = 2.52636e-06, global = 2.9102e-20, cumulative = 2.7743e-19
DICPCG:  Solving for p_rgh, Initial residual = 0.0155814, Final residual = 0.000685667, No Iterations 14
time step continuity errors : sum local = 7.99965e-07, global = -3.19461e-20, cumulative = 2.45484e-19
DICPCG:  Solving for p_rgh, Initial residual = 0.00264874, Final residual = 9.73247e-08, No Iterations 91
time step continuity errors : sum local = 1.13829e-10, global = -3.69097e-20, cumulative = 2.08574e-19
ExecutionTime = 1.93 s  ClockTime = 2 s

Courant Number mean: 0.0545016 max: 0.429964
Interface Courant Number mean: 0.0026832 max: 0.38492
deltaT = 0.00201281
Time = 0.0419488

PIMPLE: iteration 1
MULES: Solving for alpha.water
Phase-1 volume fraction = 0.25  Min(alpha.water) = 0  Max(alpha.water) = 1
MULES: Solving for alpha.water
Phase-1 volume fraction = 0.25  Min(alpha.water) = 0  Max(alpha.water) = 1
DICPCG:  Solving for p_rgh, Initial residual = 0.0461643, Final residual = 0.00204559, No Iterations 6
time step continuity errors : sum local = 2.3961e-06, global = 8.69834e-21, cumulative = 2.17273e-19
DICPCG:  Solving for p_rgh, Initial residual = 0.0154886, Final residual = 0.000727657, No Iterations 14
time step continuity errors : sum local = 8.4652e-07, global = -2.41503e-20, cumulative = 1.93122e-19
DICPCG:  Solving for p_rgh, Initial residual = 0.00264869, Final residual = 7.47322e-08, No Iterations 92
time step continuity errors : sum local = 8.38946e-11, global = -8.25784e-20, cumulative = 1.10544e-19
ExecutionTime = 2 s  ClockTime = 3 s

Courant Number mean: 0.0545468 max: 0.417643
Interface Courant Number mean: 0.00292176 max: 0.379754
deltaT = 0.00201281
Time = 0.0439616

PIMPLE: iteration 1
MULES: Solving for alpha.water
Phase-1 volume fraction = 0.25  Min(alpha.water) = 0  Max(alpha.water) = 1
MULES: Solving for alpha.water
Phase-1 volume fraction = 0.25  Min(alpha.water) = 0  Max(alpha.water) = 1
DICPCG:  Solving for p_rgh, Initial residual = 0.0455607, Final residual = 0.00188899, No Iterations 6
time step continuity errors : sum local = 2.15071e-06, global = -8.36595e-20, cumulative = 2.68844e-20
DICPCG:  Solving for p_rgh, Initial residual = 0.0156685, Final residual = 0.000662404, No Iterations 14
time step continuity errors : sum local = 7.60927e-07, global = -3.29422e-20, cumulative = -6.05781e-21
DICPCG:  Solving for p_rgh, Initial residual = 0.00261608, Final residual = 7.01872e-08, No Iterations 91
time step continuity errors : sum local = 7.70694e-11, global = -2.63111e-20, cumulative = -3.23689e-20
ExecutionTime = 2.08 s  ClockTime = 3 s

Courant Number mean: 0.0546012 max: 0.406689
Interface Courant Number mean: 0.00292565 max: 0.373798
deltaT = 0.00201281
Time = 0.0459744

PIMPLE: iteration 1
MULES: Solving for alpha.water
Phase-1 volume fraction = 0.25  Min(alpha.water) = 0  Max(alpha.water) = 1
MULES: Solving for alpha.water
Phase-1 volume fraction = 0.25  Min(alpha.water) = 0  Max(alpha.water) = 1
DICPCG:  Solving for p_rgh, Initial residual = 0.0410362, Final residual = 0.00181086, No Iterations 6
time step continuity errors : sum local = 2.00656e-06, global = -2.10117e-20, cumulative = -5.33806e-20
DICPCG:  Solving for p_rgh, Initial residual = 0.0153447, Final residual = 0.00074122, No Iterations 10
time step continuity errors : sum local = 7.99237e-07, global = -3.99552e-20, cumulative = -9.33358e-20
DICPCG:  Solving for p_rgh, Initial residual = 0.00258134, Final residual = 9.44238e-08, No Iterations 88
time step continuity errors : sum local = 1.0156e-10, global = -4.6644e-21, cumulative = -9.80002e-20
ExecutionTime = 2.14 s  ClockTime = 3 s

Courant Number mean: 0.0546576 max: 0.396575
Interface Courant Number mean: 0.00323166 max: 0.367248
deltaT = 0.00201281
Time = 0.0479872

PIMPLE: iteration 1
MULES: Solving for alpha.water
Phase-1 volume fraction = 0.25  Min(alpha.water) = 0  Max(alpha.water) = 1
MULES: Solving for alpha.water
Phase-1 volume fraction = 0.25  Min(alpha.water) = 0  Max(alpha.water) = 1
DICPCG:  Solving for p_rgh, Initial residual = 0.0374693, Final residual = 0.00173115, No Iterations 7
time step continuity errors : sum local = 1.89423e-06, global = -1.77005e-20, cumulative = -1.15701e-19
DICPCG:  Solving for p_rgh, Initial residual = 0.0152403, Final residual = 0.000755988, No Iterations 10
time step continuity errors : sum local = 8.04298e-07, global = 1.16437e-19, cumulative = 7.36283e-22
DICPCG:  Solving for p_rgh, Initial residual = 0.00258239, Final residual = 8.21769e-08, No Iterations 90
time step continuity errors : sum local = 8.65959e-11, global = -1.02704e-19, cumulative = -1.01968e-19
ExecutionTime = 2.21 s  ClockTime = 3 s

Courant Number mean: 0.054722 max: 0.388682
Interface Courant Number mean: 0.00322474 max: 0.360148
deltaT = 0.00201281
Time = 0.05

PIMPLE: iteration 1
MULES: Solving for alpha.water
Phase-1 volume fraction = 0.25  Min(alpha.water) = 0  Max(alpha.water) = 1
MULES: Solving for alpha.water
Phase-1 volume fraction = 0.25  Min(alpha.water) = 0  Max(alpha.water) = 1
DICPCG:  Solving for p_rgh, Initial residual = 0.0427808, Final residual = 0.00172447, No Iterations 6
time step continuity errors : sum local = 1.83146e-06, global = -3.31884e-20, cumulative = -1.35156e-19
DICPCG:  Solving for p_rgh, Initial residual = 0.0147983, Final residual = 0.000589742, No Iterations 10
time step continuity errors : sum local = 6.10552e-07, global = 7.7419e-21, cumulative = -1.27414e-19
DICPCG:  Solving for p_rgh, Initial residual = 0.00240059, Final residual = 8.25213e-08, No Iterations 92
time step continuity errors : sum local = 8.474e-11, global = 3.06734e-20, cumulative = -9.67406e-20
ExecutionTime = 2.68 s  ClockTime = 3 s

Courant Number mean: 0.0547981 max: 0.381708
Interface Courant Number mean: 0.00339078 max: 0.354316
deltaT = 0.00227273
Time = 0.0522727

PIMPLE: iteration 1
MULES: Solving for alpha.water
Phase-1 volume fraction = 0.25  Min(alpha.water) = 0  Max(alpha.water) = 1
MULES: Solving for alpha.water
Phase-1 volume fraction = 0.25  Min(alpha.water) = 0  Max(alpha.water) = 1
DICPCG:  Solving for p_rgh, Initial residual = 0.0616056, Final residual = 0.00252566, No Iterations 4
time step continuity errors : sum local = 3.19313e-06, global = 1.23504e-19, cumulative = 2.67631e-20
DICPCG:  Solving for p_rgh, Initial residual = 0.0169244, Final residual = 0.000788959, No Iterations 14
time step continuity errors : sum local = 9.87351e-07, global = -1.04781e-19, cumulative = -7.80176e-20
DICPCG:  Solving for p_rgh, Initial residual = 0.0030764, Final residual = 7.98536e-08, No Iterations 94
time step continuity errors : sum local = 9.74238e-11, global = 4.29938e-20, cumulative = -3.50239e-20
ExecutionTime = 2.76 s  ClockTime = 3 s

Courant Number mean: 0.0619698 max: 0.422312
Interface Courant Number mean: 0.00389369 max: 0.401389
deltaT = 0.00251196
Time = 0.0547847

PIMPLE: iteration 1
MULES: Solving for alpha.water
Phase-1 volume fraction = 0.25  Min(alpha.water) = 0  Max(alpha.water) = 1
MULES: Solving for alpha.water
Phase-1 volume fraction = 0.25  Min(alpha.water) = 0  Max(alpha.water) = 1
DICPCG:  Solving for p_rgh, Initial residual = 0.0527004, Final residual = 0.00263069, No Iterations 6
time step continuity errors : sum local = 3.88951e-06, global = -1.12722e-19, cumulative = -1.47745e-19
DICPCG:  Solving for p_rgh, Initial residual = 0.0184631, Final residual = 0.000735129, No Iterations 10
time step continuity errors : sum local = 1.05947e-06, global = 3.38968e-20, cumulative = -1.13849e-19
DICPCG:  Solving for p_rgh, Initial residual = 0.00337983, Final residual = 8.47559e-08, No Iterations 93
time step continuity errors : sum local = 1.21087e-10, global = 3.74112e-20, cumulative = -7.64374e-20
ExecutionTime = 2.83 s  ClockTime = 3 s

Courant Number mean: 0.0686215 max: 0.456936
Interface Courant Number mean: 0.00429177 max: 0.444523
deltaT = 0.00265972
Time = 0.0574444

PIMPLE: iteration 1
MULES: Solving for alpha.water
Phase-1 volume fraction = 0.25  Min(alpha.water) = 0  Max(alpha.water) = 1
MULES: Solving for alpha.water
Phase-1 volume fraction = 0.25  Min(alpha.water) = 0  Max(alpha.water) = 1
DICPCG:  Solving for p_rgh, Initial residual = 0.0494004, Final residual = 0.00211105, No Iterations 7
time step continuity errors : sum local = 3.43797e-06, global = 4.69685e-20, cumulative = -2.94688e-20
DICPCG:  Solving for p_rgh, Initial residual = 0.018932, Final residual = 0.000672755, No Iterations 10
time step continuity errors : sum local = 1.08157e-06, global = 8.72411e-20, cumulative = 5.77722e-20
DICPCG:  Solving for p_rgh, Initial residual = 0.00348834, Final residual = 7.21016e-08, No Iterations 90
time step continuity errors : sum local = 1.12754e-10, global = -1.26689e-19, cumulative = -6.8917e-20
ExecutionTime = 2.9 s  ClockTime = 3 s

Courant Number mean: 0.072798 max: 0.48309
Interface Courant Number mean: 0.00451652 max: 0.470983
deltaT = 0.00265972
Time = 0.0601041

PIMPLE: iteration 1
MULES: Solving for alpha.water
Phase-1 volume fraction = 0.25  Min(alpha.water) = 0  Max(alpha.water) = 1
MULES: Solving for alpha.water
Phase-1 volume fraction = 0.25  Min(alpha.water) = 0  Max(alpha.water) = 1
DICPCG:  Solving for p_rgh, Initial residual = 0.0432872, Final residual = 0.00198176, No Iterations 7
time step continuity errors : sum local = 3.17624e-06, global = -1.26539e-19, cumulative = -1.95456e-19
DICPCG:  Solving for p_rgh, Initial residual = 0.0185002, Final residual = 0.000892776, No Iterations 9
time step continuity errors : sum local = 1.40009e-06, global = 1.68569e-19, cumulative = -2.68869e-20
DICPCG:  Solving for p_rgh, Initial residual = 0.00350505, Final residual = 9.78802e-08, No Iterations 89
time step continuity errors : sum local = 1.51253e-10, global = -1.26344e-19, cumulative = -1.53231e-19
ExecutionTime = 2.97 s  ClockTime = 4 s

Courant Number mean: 0.0729631 max: 0.482745
Interface Courant Number mean: 0.00481629 max: 0.470954
deltaT = 0.00265972
Time = 0.0627639

PIMPLE: iteration 1
MULES: Solving for alpha.water
Phase-1 volume fraction = 0.25  Min(alpha.water) = 0  Max(alpha.water) = 1
MULES: Solving for alpha.water
Phase-1 volume fraction = 0.25  Min(alpha.water) = 0  Max(alpha.water) = 1
DICPCG:  Solving for p_rgh, Initial residual = 0.0488294, Final residual = 0.0020209, No Iterations 7
time step continuity errors : sum local = 3.21359e-06, global = -1.12184e-20, cumulative = -1.64449e-19
DICPCG:  Solving for p_rgh, Initial residual = 0.018145, Final residual = 0.000746201, No Iterations 10
time step continuity errors : sum local = 1.17207e-06, global = 1.59543e-20, cumulative = -1.48495e-19
DICPCG:  Solving for p_rgh, Initial residual = 0.003211, Final residual = 8.35974e-08, No Iterations 93
time step continuity errors : sum local = 1.29752e-10, global = 3.38736e-20, cumulative = -1.14621e-19
ExecutionTime = 3.04 s  ClockTime = 4 s

Courant Number mean: 0.0731208 max: 0.481995
Interface Courant Number mean: 0.00470379 max: 0.47032
deltaT = 0.00265972
Time = 0.0654236

PIMPLE: iteration 1
MULES: Solving for alpha.water
Phase-1 volume fraction = 0.25  Min(alpha.water) = 0  Max(alpha.water) = 1
MULES: Solving for alpha.water
Phase-1 volume fraction = 0.25  Min(alpha.water) = 0  Max(alpha.water) = 1
DICPCG:  Solving for p_rgh, Initial residual = 0.0435777, Final residual = 0.00193631, No Iterations 8
time step continuity errors : sum local = 3.09067e-06, global = 1.1514e-19, cumulative = 5.18855e-22
DICPCG:  Solving for p_rgh, Initial residual = 0.0178552, Final residual = 0.000786165, No Iterations 10
time step continuity errors : sum local = 1.22405e-06, global = -1.30018e-19, cumulative = -1.29499e-19
DICPCG:  Solving for p_rgh, Initial residual = 0.00311863, Final residual = 9.53009e-08, No Iterations 90
time step continuity errors : sum local = 1.4662e-10, global = 1.90746e-20, cumulative = -1.10424e-19
ExecutionTime = 3.11 s  ClockTime = 4 s

Courant Number mean: 0.0732909 max: 0.483418
Interface Courant Number mean: 0.00498852 max: 0.46912
deltaT = 0.00265972
Time = 0.0680833

PIMPLE: iteration 1
MULES: Solving for alpha.water
Phase-1 volume fraction = 0.25  Min(alpha.water) = 0  Max(alpha.water) = 1
MULES: Solving for alpha.water
Phase-1 volume fraction = 0.25  Min(alpha.water) = 0  Max(alpha.water) = 1
DICPCG:  Solving for p_rgh, Initial residual = 0.0516644, Final residual = 0.00207493, No Iterations 7
time step continuity errors : sum local = 3.27746e-06, global = 7.9348e-20, cumulative = -3.10762e-20
DICPCG:  Solving for p_rgh, Initial residual = 0.0169013, Final residual = 0.000641011, No Iterations 10
time step continuity errors : sum local = 1.00675e-06, global = 1.58703e-19, cumulative = 1.27627e-19
DICPCG:  Solving for p_rgh, Initial residual = 0.00294301, Final residual = 8.81563e-08, No Iterations 93
time step continuity errors : sum local = 1.34116e-10, global = 4.77798e-20, cumulative = 1.75407e-19
ExecutionTime = 3.18 s  ClockTime = 4 s

Courant Number mean: 0.0734642 max: 0.483784
Interface Courant Number mean: 0.00506574 max: 0.469625
deltaT = 0.00265972
Time = 0.070743

PIMPLE: iteration 1
MULES: Solving for alpha.water
Phase-1 volume fraction = 0.25  Min(alpha.water) = 0  Max(alpha.water) = 1
MULES: Solving for alpha.water
Phase-1 volume fraction = 0.25  Min(alpha.water) = 0  Max(alpha.water) = 1
DICPCG:  Solving for p_rgh, Initial residual = 0.0466114, Final residual = 0.00225769, No Iterations 7
time step continuity errors : sum local = 3.51133e-06, global = -4.86512e-20, cumulative = 1.26756e-19
DICPCG:  Solving for p_rgh, Initial residual = 0.0169084, Final residual = 0.000694873, No Iterations 10
time step continuity errors : sum local = 1.0598e-06, global = -1.43994e-21, cumulative = 1.25316e-19
DICPCG:  Solving for p_rgh, Initial residual = 0.00289056, Final residual = 8.76598e-08, No Iterations 90
time step continuity errors : sum local = 1.31428e-10, global = 4.12051e-20, cumulative = 1.66521e-19
ExecutionTime = 3.25 s  ClockTime = 4 s

Courant Number mean: 0.0736454 max: 0.483141
Interface Courant Number mean: 0.00517342 max: 0.471381
deltaT = 0.00265972
Time = 0.0734028

PIMPLE: iteration 1
MULES: Solving for alpha.water
Phase-1 volume fraction = 0.25  Min(alpha.water) = 0  Max(alpha.water) = 1
MULES: Solving for alpha.water
Phase-1 volume fraction = 0.25  Min(alpha.water) = 0  Max(alpha.water) = 1
DICPCG:  Solving for p_rgh, Initial residual = 0.0532665, Final residual = 0.00246421, No Iterations 5
time step continuity errors : sum local = 3.7049e-06, global = 1.47483e-19, cumulative = 3.14004e-19
DICPCG:  Solving for p_rgh, Initial residual = 0.0162435, Final residual = 0.000655383, No Iterations 14
time step continuity errors : sum local = 9.78616e-07, global = -2.08334e-19, cumulative = 1.05669e-19
DICPCG:  Solving for p_rgh, Initial residual = 0.00284393, Final residual = 9.9968e-08, No Iterations 94
time step continuity errors : sum local = 1.4722e-10, global = -2.54443e-20, cumulative = 8.0225e-20
ExecutionTime = 3.32 s  ClockTime = 4 s

Courant Number mean: 0.0738502 max: 0.481403
Interface Courant Number mean: 0.00556785 max: 0.472881
deltaT = 0.00265972
Time = 0.0760625

PIMPLE: iteration 1
MULES: Solving for alpha.water
Phase-1 volume fraction = 0.25  Min(alpha.water) = 0  Max(alpha.water) = 1
MULES: Solving for alpha.water
Phase-1 volume fraction = 0.25  Min(alpha.water) = 0  Max(alpha.water) = 1
DICPCG:  Solving for p_rgh, Initial residual = 0.0589132, Final residual = 0.00258634, No Iterations 7
time step continuity errors : sum local = 3.84451e-06, global = -6.4131e-21, cumulative = 7.38119e-20
DICPCG:  Solving for p_rgh, Initial residual = 0.0161884, Final residual = 0.000733851, No Iterations 14
time step continuity errors : sum local = 1.14633e-06, global = 2.16684e-20, cumulative = 9.54803e-20
DICPCG:  Solving for p_rgh, Initial residual = 0.00291828, Final residual = 7.32938e-08, No Iterations 91
time step continuity errors : sum local = 1.08196e-10, global = 3.10864e-20, cumulative = 1.26567e-19
ExecutionTime = 3.4 s  ClockTime = 4 s

Courant Number mean: 0.0740428 max: 0.479503
Interface Courant Number mean: 0.00570773 max: 0.473866
deltaT = 0.00265972
Time = 0.0787222

PIMPLE: iteration 1
MULES: Solving for alpha.water
Phase-1 volume fraction = 0.25  Min(alpha.water) = 0  Max(alpha.water) = 1
MULES: Solving for alpha.water
Phase-1 volume fraction = 0.25  Min(alpha.water) = 0  Max(alpha.water) = 1
DICPCG:  Solving for p_rgh, Initial residual = 0.0454986, Final residual = 0.00209682, No Iterations 7
time step continuity errors : sum local = 3.16818e-06, global = 2.08854e-20, cumulative = 1.47452e-19
DICPCG:  Solving for p_rgh, Initial residual = 0.0157255, Final residual = 0.000610358, No Iterations 10
time step continuity errors : sum local = 9.00737e-07, global = 6.31783e-20, cumulative = 2.1063e-19
DICPCG:  Solving for p_rgh, Initial residual = 0.0026362, Final residual = 7.84982e-08, No Iterations 90
time step continuity errors : sum local = 1.15993e-10, global = 8.1788e-20, cumulative = 2.92418e-19
ExecutionTime = 3.47 s  ClockTime = 4 s

Courant Number mean: 0.074234 max: 0.482051
Interface Courant Number mean: 0.00600206 max: 0.474317
deltaT = 0.00265972
Time = 0.0813819

PIMPLE: iteration 1
MULES: Solving for alpha.water
Phase-1 volume fraction = 0.25  Min(alpha.water) = 0  Max(alpha.water) = 1
MULES: Solving for alpha.water
Phase-1 volume fraction = 0.25  Min(alpha.water) = 0  Max(alpha.water) = 1
DICPCG:  Solving for p_rgh, Initial residual = 0.0449156, Final residual = 0.00197413, No Iterations 7
time step continuity errors : sum local = 2.99943e-06, global = 8.63925e-20, cumulative = 3.78811e-19
DICPCG:  Solving for p_rgh, Initial residual = 0.0156774, Final residual = 0.000760905, No Iterations 10
time step continuity errors : sum local = 1.15351e-06, global = -2.01411e-20, cumulative = 3.5867e-19
DICPCG:  Solving for p_rgh, Initial residual = 0.00274776, Final residual = 9.37012e-08, No Iterations 93
time step continuity errors : sum local = 1.37572e-10, global = 1.97534e-19, cumulative = 5.56204e-19
ExecutionTime = 3.54 s  ClockTime = 4 s

Courant Number mean: 0.074432 max: 0.483777
Interface Courant Number mean: 0.00573235 max: 0.474204
deltaT = 0.00265972
Time = 0.0840417

PIMPLE: iteration 1
MULES: Solving for alpha.water
Phase-1 volume fraction = 0.25  Min(alpha.water) = 0  Max(alpha.water) = 1
MULES: Solving for alpha.water
Phase-1 volume fraction = 0.25  Min(alpha.water) = 0  Max(alpha.water) = 1
DICPCG:  Solving for p_rgh, Initial residual = 0.0426665, Final residual = 0.00178303, No Iterations 7
time step continuity errors : sum local = 2.70316e-06, global = 1.76032e-19, cumulative = 7.32235e-19
DICPCG:  Solving for p_rgh, Initial residual = 0.0152461, Final residual = 0.00056814, No Iterations 10
time step continuity errors : sum local = 8.59509e-07, global = 9.93537e-21, cumulative = 7.42171e-19
DICPCG:  Solving for p_rgh, Initial residual = 0.00257533, Final residual = 9.93269e-08, No Iterations 93
time step continuity errors : sum local = 1.45631e-10, global = 5.67132e-20, cumulative = 7.98884e-19
ExecutionTime = 3.61 s  ClockTime = 4 s

Courant Number mean: 0.0746388 max: 0.484657
Interface Courant Number mean: 0.00611187 max: 0.473469
deltaT = 0.00265972
Time = 0.0867014

PIMPLE: iteration 1
MULES: Solving for alpha.water
Phase-1 volume fraction = 0.25  Min(alpha.water) = 0  Max(alpha.water) = 1
MULES: Solving for alpha.water
Phase-1 volume fraction = 0.25  Min(alpha.water) = 0  Max(alpha.water) = 1
DICPCG:  Solving for p_rgh, Initial residual = 0.0466594, Final residual = 0.00186516, No Iterations 7
time step continuity errors : sum local = 2.79695e-06, global = -4.85599e-20, cumulative = 7.50324e-19
DICPCG:  Solving for p_rgh, Initial residual = 0.0150579, Final residual = 0.000576012, No Iterations 10
time step continuity errors : sum local = 8.36844e-07, global = 1.80664e-19, cumulative = 9.30987e-19
DICPCG:  Solving for p_rgh, Initial residual = 0.00250622, Final residual = 8.81621e-08, No Iterations 90
time step continuity errors : sum local = 1.28978e-10, global = -4.16514e-20, cumulative = 8.89336e-19
ExecutionTime = 3.68 s  ClockTime = 4 s

Courant Number mean: 0.0748423 max: 0.484672
Interface Courant Number mean: 0.00635508 max: 0.472931
deltaT = 0.00265972
Time = 0.0893611

PIMPLE: iteration 1
MULES: Solving for alpha.water
Phase-1 volume fraction = 0.25  Min(alpha.water) = 0  Max(alpha.water) = 1
MULES: Solving for alpha.water
Phase-1 volume fraction = 0.25  Min(alpha.water) = 0  Max(alpha.water) = 1
DICPCG:  Solving for p_rgh, Initial residual = 0.0543883, Final residual = 0.00255486, No Iterations 7
time step continuity errors : sum local = 3.7455e-06, global = -5.23925e-20, cumulative = 8.36944e-19
DICPCG:  Solving for p_rgh, Initial residual = 0.0151738, Final residual = 0.000700828, No Iterations 10
time step continuity errors : sum local = 1.08719e-06, global = 1.14186e-19, cumulative = 9.5113e-19
DICPCG:  Solving for p_rgh, Initial residual = 0.00260136, Final residual = 9.9672e-08, No Iterations 93
time step continuity errors : sum local = 1.4454e-10, global = 8.63277e-20, cumulative = 1.03746e-18
ExecutionTime = 3.76 s  ClockTime = 4 s

Courant Number mean: 0.0750441 max: 0.483861
Interface Courant Number mean: 0.00642095 max: 0.475156
deltaT = 0.00265972
Time = 0.0920208

PIMPLE: iteration 1
MULES: Solving for alpha.water
Phase-1 volume fraction = 0.25  Min(alpha.water) = 0  Max(alpha.water) = 1
MULES: Solving for alpha.water
Phase-1 volume fraction = 0.25  Min(alpha.water) = 1.6049e-135  Max(alpha.water) = 1
DICPCG:  Solving for p_rgh, Initial residual = 0.0483208, Final residual = 0.00235154, No Iterations 6
time step continuity errors : sum local = 3.46063e-06, global = -1.62983e-20, cumulative = 1.02116e-18
DICPCG:  Solving for p_rgh, Initial residual = 0.0147081, Final residual = 0.00046681, No Iterations 10
time step continuity errors : sum local = 6.88163e-07, global = -1.80466e-19, cumulative = 8.40693e-19
DICPCG:  Solving for p_rgh, Initial residual = 0.00240866, Final residual = 9.21896e-08, No Iterations 93
time step continuity errors : sum local = 1.33668e-10, global = -1.02851e-19, cumulative = 7.37842e-19
ExecutionTime = 3.83 s  ClockTime = 4 s

Courant Number mean: 0.0752508 max: 0.482141
Interface Courant Number mean: 0.00636583 max: 0.476866
deltaT = 0.00265972
Time = 0.0946806

PIMPLE: iteration 1
MULES: Solving for alpha.water
Phase-1 volume fraction = 0.25  Min(alpha.water) = 8.163e-134  Max(alpha.water) = 1
MULES: Solving for alpha.water
Phase-1 volume fraction = 0.25  Min(alpha.water) = 2.831e-132  Max(alpha.water) = 1
DICPCG:  Solving for p_rgh, Initial residual = 0.0444881, Final residual = 0.00169641, No Iterations 7
time step continuity errors : sum local = 2.52584e-06, global = 7.79828e-21, cumulative = 7.45641e-19
DICPCG:  Solving for p_rgh, Initial residual = 0.0142986, Final residual = 0.000533883, No Iterations 10
time step continuity errors : sum local = 7.88075e-07, global = -4.59895e-20, cumulative = 6.99651e-19
DICPCG:  Solving for p_rgh, Initial residual = 0.00235995, Final residual = 9.21791e-08, No Iterations 93
time step continuity errors : sum local = 1.32357e-10, global = -1.18111e-19, cumulative = 5.8154e-19
ExecutionTime = 3.9 s  ClockTime = 4 s

Courant Number mean: 0.0754539 max: 0.479613
Interface Courant Number mean: 0.00630424 max: 0.478111
deltaT = 0.00265972
Time = 0.0973403

PIMPLE: iteration 1
MULES: Solving for alpha.water
Phase-1 volume fraction = 0.25  Min(alpha.water) = 7.25605e-131  Max(alpha.water) = 1
MULES: Solving for alpha.water
Phase-1 volume fraction = 0.25  Min(alpha.water) = 1.51637e-129  Max(alpha.water) = 1
DICPCG:  Solving for p_rgh, Initial residual = 0.0490786, Final residual = 0.0023546, No Iterations 5
time step continuity errors : sum local = 3.44097e-06, global = 5.74113e-20, cumulative = 6.38951e-19
DICPCG:  Solving for p_rgh, Initial residual = 0.0134846, Final residual = 0.000594393, No Iterations 10
time step continuity errors : sum local = 8.86643e-07, global = 6.49311e-20, cumulative = 7.03882e-19
DICPCG:  Solving for p_rgh, Initial residual = 0.00233309, Final residual = 8.27729e-08, No Iterations 93
time step continuity errors : sum local = 1.20221e-10, global = -2.83799e-20, cumulative = 6.75502e-19
ExecutionTime = 3.97 s  ClockTime = 5 s

Courant Number mean: 0.0756658 max: 0.480393
Interface Courant Number mean: 0.00654368 max: 0.478655
deltaT = 0.00265972
Time = 0.1

PIMPLE: iteration 1
MULES: Solving for alpha.water
Phase-1 volume fraction = 0.25  Min(alpha.water) = 2.6117e-128  Max(alpha.water) = 1
MULES: Solving for alpha.water
Phase-1 volume fraction = 0.25  Min(alpha.water) = 3.91789e-127  Max(alpha.water) = 1
DICPCG:  Solving for p_rgh, Initial residual = 0.048477, Final residual = 0.00184007, No Iterations 7
time step continuity errors : sum local = 2.75652e-06, global = -6.79817e-21, cumulative = 6.68704e-19
DICPCG:  Solving for p_rgh, Initial residual = 0.0132533, Final residual = 0.00061899, No Iterations 10
time step continuity errors : sum local = 9.37381e-07, global = 1.29586e-19, cumulative = 7.9829e-19
DICPCG:  Solving for p_rgh, Initial residual = 0.00228774, Final residual = 7.48029e-08, No Iterations 91
time step continuity errors : sum local = 1.11807e-10, global = 2.86992e-20, cumulative = 8.26989e-19
ExecutionTime = 4.41 s  ClockTime = 5 s

Courant Number mean: 0.0758853 max: 0.481934
Interface Courant Number mean: 0.00674597 max: 0.478267
deltaT = 0.00263158
Time = 0.102632

PIMPLE: iteration 1
MULES: Solving for alpha.water
Phase-1 volume fraction = 0.25  Min(alpha.water) = 5.05357e-126  Max(alpha.water) = 1
MULES: Solving for alpha.water
Phase-1 volume fraction = 0.25  Min(alpha.water) = 5.87203e-125  Max(alpha.water) = 1
DICPCG:  Solving for p_rgh, Initial residual = 0.0452654, Final residual = 0.00203644, No Iterations 7
time step continuity errors : sum local = 3.00427e-06, global = 1.21791e-19, cumulative = 9.4878e-19
DICPCG:  Solving for p_rgh, Initial residual = 0.0128816, Final residual = 0.000525518, No Iterations 10
time step continuity errors : sum local = 7.9528e-07, global = 9.78607e-20, cumulative = 1.04664e-18
DICPCG:  Solving for p_rgh, Initial residual = 0.00214012, Final residual = 8.44554e-08, No Iterations 90
time step continuity errors : sum local = 1.23115e-10, global = -8.5852e-20, cumulative = 9.60789e-19
ExecutionTime = 4.48 s  ClockTime = 5 s

Courant Number mean: 0.0752942 max: 0.477622
Interface Courant Number mean: 0.00648398 max: 0.471636
deltaT = 0.00263158
Time = 0.105263

PIMPLE: iteration 1
MULES: Solving for alpha.water
Phase-1 volume fraction = 0.25  Min(alpha.water) = 6.11392e-124  Max(alpha.water) = 1
MULES: Solving for alpha.water
Phase-1 volume fraction = 0.25  Min(alpha.water) = 5.85144e-123  Max(alpha.water) = 1
DICPCG:  Solving for p_rgh, Initial residual = 0.0442152, Final residual = 0.00209757, No Iterations 5
time step continuity errors : sum local = 3.07062e-06, global = 4.05019e-20, cumulative = 1.00129e-18
DICPCG:  Solving for p_rgh, Initial residual = 0.0124603, Final residual = 0.000589682, No Iterations 10
time step continuity errors : sum local = 8.49573e-07, global = 1.41659e-20, cumulative = 1.01546e-18
DICPCG:  Solving for p_rgh, Initial residual = 0.00209931, Final residual = 7.58978e-08, No Iterations 91
time step continuity errors : sum local = 1.09424e-10, global = 4.84072e-20, cumulative = 1.06386e-18
ExecutionTime = 4.56 s  ClockTime = 5 s

Courant Number mean: 0.0754994 max: 0.477651
Interface Courant Number mean: 0.0067384 max: 0.469101
deltaT = 0.00263158
Time = 0.107895

PIMPLE: iteration 1
MULES: Solving for alpha.water
Phase-1 volume fraction = 0.25  Min(alpha.water) = 5.12061e-122  Max(alpha.water) = 1
MULES: Solving for alpha.water
Phase-1 volume fraction = 0.25  Min(alpha.water) = 4.17408e-121  Max(alpha.water) = 1
DICPCG:  Solving for p_rgh, Initial residual = 0.041789, Final residual = 0.00203467, No Iterations 6
time step continuity errors : sum local = 2.9817e-06, global = 1.11493e-19, cumulative = 1.17536e-18
DICPCG:  Solving for p_rgh, Initial residual = 0.0123582, Final residual = 0.000469825, No Iterations 10
time step continuity errors : sum local = 6.84824e-07, global = -1.94895e-19, cumulative = 9.80462e-19
DICPCG:  Solving for p_rgh, Initial residual = 0.00194128, Final residual = 9.60349e-08, No Iterations 92
time step continuity errors : sum local = 1.38226e-10, global = 1.88298e-20, cumulative = 9.99292e-19
ExecutionTime = 4.62 s  ClockTime = 5 s

Courant Number mean: 0.0757011 max: 0.476984
Interface Courant Number mean: 0.00686603 max: 0.470358
deltaT = 0.00263158
Time = 0.110526

PIMPLE: iteration 1
MULES: Solving for alpha.water
Phase-1 volume fraction = 0.25  Min(alpha.water) = 1.41197e-111  Max(alpha.water) = 1
MULES: Solving for alpha.water
Phase-1 volume fraction = 0.25  Min(alpha.water) = 9.23108e-111  Max(alpha.water) = 1
DICPCG:  Solving for p_rgh, Initial residual = 0.0426655, Final residual = 0.00144071, No Iterations 7
time step continuity errors : sum local = 2.14187e-06, global = 8.6921e-20, cumulative = 1.08621e-18
DICPCG:  Solving for p_rgh, Initial residual = 0.011743, Final residual = 0.000442468, No Iterations 10
time step continuity errors : sum local = 6.55038e-07, global = 1.3931e-20, cumulative = 1.10014e-18
DICPCG:  Solving for p_rgh, Initial residual = 0.00186447, Final residual = 9.4949e-08, No Iterations 93
time step continuity errors : sum local = 1.37662e-10, global = -1.16554e-19, cumulative = 9.8359e-19
ExecutionTime = 4.7 s  ClockTime = 6 s

Courant Number mean: 0.0759067 max: 0.475598
Interface Courant Number mean: 0.00703242 max: 0.471918
deltaT = 0.00263158
Time = 0.113158

PIMPLE: iteration 1
MULES: Solving for alpha.water
Phase-1 volume fraction = 0.25  Min(alpha.water) = 5.9562e-110  Max(alpha.water) = 1
MULES: Solving for alpha.water
Phase-1 volume fraction = 0.25  Min(alpha.water) = 3.6104e-109  Max(alpha.water) = 1
DICPCG:  Solving for p_rgh, Initial residual = 0.0440543, Final residual = 0.00156355, No Iterations 7
time step continuity errors : sum local = 2.33356e-06, global = 1.10977e-19, cumulative = 1.09457e-18
DICPCG:  Solving for p_rgh, Initial residual = 0.0117218, Final residual = 0.00051541, No Iterations 10
time step continuity errors : sum local = 7.76973e-07, global = 5.01226e-20, cumulative = 1.14469e-18
DICPCG:  Solving for p_rgh, Initial residual = 0.00191113, Final residual = 9.81784e-08, No Iterations 93
time step continuity errors : sum local = 1.4161e-10, global = 2.08856e-20, cumulative = 1.16557e-18
ExecutionTime = 4.77 s  ClockTime = 6 s

Courant Number mean: 0.0761192 max: 0.473508
Interface Courant Number mean: 0.0072001 max: 0.473025
deltaT = 0.00263158
Time = 0.115789

PIMPLE: iteration 1
MULES: Solving for alpha.water
Phase-1 volume fraction = 0.25  Min(alpha.water) = 2.16007e-108  Max(alpha.water) = 1
MULES: Solving for alpha.water
Phase-1 volume fraction = 0.25  Min(alpha.water) = 1.21924e-107  Max(alpha.water) = 1
DICPCG:  Solving for p_rgh, Initial residual = 0.0433752, Final residual = 0.00145657, No Iterations 7
time step continuity errors : sum local = 2.14307e-06, global = -1.08898e-19, cumulative = 1.05668e-18
DICPCG:  Solving for p_rgh, Initial residual = 0.0118643, Final residual = 0.000450591, No Iterations 10
time step continuity errors : sum local = 6.6018e-07, global = -3.29721e-21, cumulative = 1.05338e-18
DICPCG:  Solving for p_rgh, Initial residual = 0.00186204, Final residual = 9.69923e-08, No Iterations 93
time step continuity errors : sum local = 1.38585e-10, global = 2.4377e-22, cumulative = 1.05362e-18
ExecutionTime = 4.84 s  ClockTime = 6 s

Courant Number mean: 0.0763337 max: 0.473439
Interface Courant Number mean: 0.00699628 max: 0.473439
deltaT = 0.00263158
Time = 0.118421

PIMPLE: iteration 1
MULES: Solving for alpha.water
Phase-1 volume fraction = 0.25  Min(alpha.water) = 6.79852e-107  Max(alpha.water) = 1
MULES: Solving for alpha.water
Phase-1 volume fraction = 0.25  Min(alpha.water) = 3.59153e-106  Max(alpha.water) = 1
DICPCG:  Solving for p_rgh, Initial residual = 0.0441618, Final residual = 0.00200966, No Iterations 6
time step continuity errors : sum local = 2.89893e-06, global = -3.64878e-20, cumulative = 1.01714e-18
DICPCG:  Solving for p_rgh, Initial residual = 0.0118867, Final residual = 0.000428725, No Iterations 10
time step continuity errors : sum local = 6.13397e-07, global = 1.15516e-19, cumulative = 1.13265e-18
DICPCG:  Solving for p_rgh, Initial residual = 0.00182929, Final residual = 8.74207e-08, No Iterations 93
time step continuity errors : sum local = 1.23969e-10, global = 1.44716e-19, cumulative = 1.27737e-18
ExecutionTime = 4.91 s  ClockTime = 6 s

Courant Number mean: 0.0765399 max: 0.472928
Interface Courant Number mean: 0.00670285 max: 0.472928
deltaT = 0.00263158
Time = 0.121053

PIMPLE: iteration 1
MULES: Solving for alpha.water
Phase-1 volume fraction = 0.25  Min(alpha.water) = 1.87903e-105  Max(alpha.water) = 1
MULES: Solving for alpha.water
Phase-1 volume fraction = 0.25  Min(alpha.water) = 9.4032e-105  Max(alpha.water) = 1
DICPCG:  Solving for p_rgh, Initial residual = 0.0477126, Final residual = 0.00207862, No Iterations 5
time step continuity errors : sum local = 2.96813e-06, global = 1.5494e-19, cumulative = 1.43231e-18
DICPCG:  Solving for p_rgh, Initial residual = 0.0114863, Final residual = 0.000388134, No Iterations 10
time step continuity errors : sum local = 5.58759e-07, global = 5.26849e-20, cumulative = 1.48499e-18
DICPCG:  Solving for p_rgh, Initial residual = 0.00178586, Final residual = 8.02701e-08, No Iterations 88
time step continuity errors : sum local = 1.14057e-10, global = 3.93236e-20, cumulative = 1.52432e-18
ExecutionTime = 4.98 s  ClockTime = 6 s

Courant Number mean: 0.0767475 max: 0.472313
Interface Courant Number mean: 0.00679722 max: 0.471662
deltaT = 0.00263158
Time = 0.123684

PIMPLE: iteration 1
MULES: Solving for alpha.water
Phase-1 volume fraction = 0.25  Min(alpha.water) = 4.69317e-104  Max(alpha.water) = 1
MULES: Solving for alpha.water
Phase-1 volume fraction = 0.25  Min(alpha.water) = 2.24953e-103  Max(alpha.water) = 1
DICPCG:  Solving for p_rgh, Initial residual = 0.0436381, Final residual = 0.00185567, No Iterations 6
time step continuity errors : sum local = 2.6793e-06, global = 5.99782e-20, cumulative = 1.58429e-18
DICPCG:  Solving for p_rgh, Initial residual = 0.0112187, Final residual = 0.000401897, No Iterations 10
time step continuity errors : sum local = 5.7696e-07, global = 1.99999e-20, cumulative = 1.60429e-18
DICPCG:  Solving for p_rgh, Initial residual = 0.00169068, Final residual = 9.46437e-08, No Iterations 91
time step continuity errors : sum local = 1.35626e-10, global = 2.27699e-21, cumulative = 1.60657e-18
ExecutionTime = 5.05 s  ClockTime = 6 s

Courant Number mean: 0.0769561 max: 0.472656
Interface Courant Number mean: 0.00721083 max: 0.469963
deltaT = 0.00263158
Time = 0.126316

PIMPLE: iteration 1
MULES: Solving for alpha.water
Phase-1 volume fraction = 0.25  Min(alpha.water) = 1.07275e-102  Max(alpha.water) = 1
MULES: Solving for alpha.water
Phase-1 volume fraction = 0.25  Min(alpha.water) = 4.90194e-102  Max(alpha.water) = 1
DICPCG:  Solving for p_rgh, Initial residual = 0.0413916, Final residual = 0.0013308, No Iterations 7
time step continuity errors : sum local = 1.97342e-06, global = 1.69266e-20, cumulative = 1.6235e-18
DICPCG:  Solving for p_rgh, Initial residual = 0.0108984, Final residual = 0.000463297, No Iterations 10
time step continuity errors : sum local = 6.89581e-07, global = 5.511e-20, cumulative = 1.67861e-18
DICPCG:  Solving for p_rgh, Initial residual = 0.0017364, Final residual = 9.28537e-08, No Iterations 93
time step continuity errors : sum local = 1.35087e-10, global = 5.77278e-20, cumulative = 1.73634e-18
ExecutionTime = 5.12 s  ClockTime = 6 s

Courant Number mean: 0.0771678 max: 0.472384
Interface Courant Number mean: 0.0073731 max: 0.467605
deltaT = 0.00263158
Time = 0.128947

PIMPLE: iteration 1
MULES: Solving for alpha.water
Phase-1 volume fraction = 0.25  Min(alpha.water) = 2.2196e-101  Max(alpha.water) = 1
MULES: Solving for alpha.water
Phase-1 volume fraction = 0.25  Min(alpha.water) = 9.62529e-101  Max(alpha.water) = 1
DICPCG:  Solving for p_rgh, Initial residual = 0.0403399, Final residual = 0.00133457, No Iterations 7
time step continuity errors : sum local = 2.0117e-06, global = 1.57197e-19, cumulative = 1.89353e-18
DICPCG:  Solving for p_rgh, Initial residual = 0.0106101, Final residual = 0.000497592, No Iterations 10
time step continuity errors : sum local = 7.59641e-07, global = 5.12205e-20, cumulative = 1.94475e-18
DICPCG:  Solving for p_rgh, Initial residual = 0.00171238, Final residual = 9.01534e-08, No Iterations 93
time step continuity errors : sum local = 1.33004e-10, global = 3.14264e-20, cumulative = 1.97618e-18
ExecutionTime = 5.19 s  ClockTime = 6 s

Courant Number mean: 0.0773745 max: 0.471521
Interface Courant Number mean: 0.00742376 max: 0.469059
deltaT = 0.00263158
Time = 0.131579

PIMPLE: iteration 1
MULES: Solving for alpha.water
Phase-1 volume fraction = 0.25  Min(alpha.water) = 4.13013e-100  Max(alpha.water) = 1
MULES: Solving for alpha.water
Phase-1 volume fraction = 0.25  Min(alpha.water) = 1.70035e-99  Max(alpha.water) = 1
DICPCG:  Solving for p_rgh, Initial residual = 0.0400883, Final residual = 0.0012808, No Iterations 7
time step continuity errors : sum local = 1.94367e-06, global = -5.97235e-20, cumulative = 1.91646e-18
DICPCG:  Solving for p_rgh, Initial residual = 0.0104402, Final residual = 0.000483505, No Iterations 10
time step continuity errors : sum local = 7.37681e-07, global = -1.50036e-20, cumulative = 1.90145e-18
DICPCG:  Solving for p_rgh, Initial residual = 0.0016937, Final residual = 8.38292e-08, No Iterations 93
time step continuity errors : sum local = 1.2483e-10, global = -6.45899e-21, cumulative = 1.89499e-18
ExecutionTime = 5.27 s  ClockTime = 6 s

Courant Number mean: 0.0775881 max: 0.47046
Interface Courant Number mean: 0.00736398 max: 0.47046
deltaT = 0.00263158
Time = 0.134211

PIMPLE: iteration 1
MULES: Solving for alpha.water
Phase-1 volume fraction = 0.25  Min(alpha.water) = 6.92228e-99  Max(alpha.water) = 1
MULES: Solving for alpha.water
Phase-1 volume fraction = 0.25  Min(alpha.water) = 2.71173e-98  Max(alpha.water) = 1
DICPCG:  Solving for p_rgh, Initial residual = 0.0391651, Final residual = 0.00132626, No Iterations 7
time step continuity errors : sum local = 2.01859e-06, global = -6.81579e-20, cumulative = 1.82684e-18
DICPCG:  Solving for p_rgh, Initial residual = 0.0102953, Final residual = 0.000394116, No Iterations 10
time step continuity errors : sum local = 5.94983e-07, global = -4.78474e-20, cumulative = 1.77899e-18
DICPCG:  Solving for p_rgh, Initial residual = 0.00160466, Final residual = 8.77181e-08, No Iterations 93
time step continuity errors : sum local = 1.31395e-10, global = 1.47171e-19, cumulative = 1.92616e-18
ExecutionTime = 5.34 s  ClockTime = 6 s

Courant Number mean: 0.0777966 max: 0.471256
Interface Courant Number mean: 0.0073638 max: 0.471256
deltaT = 0.00263158
Time = 0.136842

PIMPLE: iteration 1
MULES: Solving for alpha.water
Phase-1 volume fraction = 0.25  Min(alpha.water) = 1.05124e-97  Max(alpha.water) = 1
MULES: Solving for alpha.water
Phase-1 volume fraction = 0.25  Min(alpha.water) = 3.93196e-97  Max(alpha.water) = 1
DICPCG:  Solving for p_rgh, Initial residual = 0.0422506, Final residual = 0.00204732, No Iterations 5
time step continuity errors : sum local = 3.09133e-06, global = 1.11538e-19, cumulative = 2.0377e-18
DICPCG:  Solving for p_rgh, Initial residual = 0.01023, Final residual = 0.000456547, No Iterations 10
time step continuity errors : sum local = 7.13075e-07, global = -1.49151e-21, cumulative = 2.03621e-18
DICPCG:  Solving for p_rgh, Initial residual = 0.00164723, Final residual = 7.5651e-08, No Iterations 90
time step continuity errors : sum local = 1.14535e-10, global = 7.59938e-20, cumulative = 2.1122e-18
ExecutionTime = 5.41 s  ClockTime = 6 s

Courant Number mean: 0.0779933 max: 0.47137
Interface Courant Number mean: 0.00754752 max: 0.47137
deltaT = 0.00263158
Time = 0.139474

PIMPLE: iteration 1
MULES: Solving for alpha.water
Phase-1 volume fraction = 0.25  Min(alpha.water) = 1.45407e-96  Max(alpha.water) = 1
MULES: Solving for alpha.water
Phase-1 volume fraction = 0.25  Min(alpha.water) = 5.20037e-96  Max(alpha.water) = 1
DICPCG:  Solving for p_rgh, Initial residual = 0.0421904, Final residual = 0.00206871, No Iterations 4
time step continuity errors : sum local = 3.15864e-06, global = 1.01715e-19, cumulative = 2.21391e-18
DICPCG:  Solving for p_rgh, Initial residual = 0.00962571, Final residual = 0.000452807, No Iterations 10
time step continuity errors : sum local = 6.94854e-07, global = 6.69337e-20, cumulative = 2.28085e-18
DICPCG:  Solving for p_rgh, Initial residual = 0.00158692, Final residual = 9.99632e-08, No Iterations 90
time step continuity errors : sum local = 1.53513e-10, global = 9.37023e-20, cumulative = 2.37455e-18
ExecutionTime = 5.48 s  ClockTime = 6 s

Courant Number mean: 0.0781964 max: 0.471259
Interface Courant Number mean: 0.00748189 max: 0.471259
deltaT = 0.00263158
Time = 0.142105

PIMPLE: iteration 1
MULES: Solving for alpha.water
Phase-1 volume fraction = 0.25  Min(alpha.water) = 1.83852e-95  Max(alpha.water) = 1
MULES: Solving for alpha.water
Phase-1 volume fraction = 0.25  Min(alpha.water) = 6.2991e-95  Max(alpha.water) = 1
DICPCG:  Solving for p_rgh, Initial residual = 0.0375397, Final residual = 0.00126713, No Iterations 7
time step continuity errors : sum local = 2.02405e-06, global = -3.76308e-20, cumulative = 2.33692e-18
DICPCG:  Solving for p_rgh, Initial residual = 0.00962162, Final residual = 0.000461629, No Iterations 10
time step continuity errors : sum local = 7.5622e-07, global = 1.37781e-19, cumulative = 2.4747e-18
DICPCG:  Solving for p_rgh, Initial residual = 0.00156191, Final residual = 9.1225e-08, No Iterations 93
time step continuity errors : sum local = 1.42512e-10, global = -1.7825e-20, cumulative = 2.45688e-18
ExecutionTime = 5.55 s  ClockTime = 6 s

Courant Number mean: 0.0784048 max: 0.47057
Interface Courant Number mean: 0.00765235 max: 0.47057
deltaT = 0.00263158
Time = 0.144737

PIMPLE: iteration 1
MULES: Solving for alpha.water
Phase-1 volume fraction = 0.25  Min(alpha.water) = 2.13616e-94  Max(alpha.water) = 1
MULES: Solving for alpha.water
Phase-1 volume fraction = 0.25  Min(alpha.water) = 7.03316e-94  Max(alpha.water) = 1
DICPCG:  Solving for p_rgh, Initial residual = 0.035956, Final residual = 0.00176441, No Iterations 6
time step continuity errors : sum local = 2.78221e-06, global = -1.70433e-19, cumulative = 2.28644e-18
DICPCG:  Solving for p_rgh, Initial residual = 0.00949809, Final residual = 0.000386704, No Iterations 10
time step continuity errors : sum local = 6.25089e-07, global = 1.52022e-20, cumulative = 2.30164e-18
DICPCG:  Solving for p_rgh, Initial residual = 0.00143888, Final residual = 9.72515e-08, No Iterations 92
time step continuity errors : sum local = 1.52096e-10, global = 1.03403e-19, cumulative = 2.40505e-18
ExecutionTime = 5.62 s  ClockTime = 6 s

Courant Number mean: 0.0786115 max: 0.468948
Interface Courant Number mean: 0.00768217 max: 0.468948
deltaT = 0.00263158
Time = 0.147368

PIMPLE: iteration 1
MULES: Solving for alpha.water
Phase-1 volume fraction = 0.25  Min(alpha.water) = 2.2918e-93  Max(alpha.water) = 1
MULES: Solving for alpha.water
Phase-1 volume fraction = 0.25  Min(alpha.water) = 7.26272e-93  Max(alpha.water) = 1
DICPCG:  Solving for p_rgh, Initial residual = 0.0377089, Final residual = 0.00188392, No Iterations 6
time step continuity errors : sum local = 2.98446e-06, global = -4.30117e-20, cumulative = 2.36204e-18
DICPCG:  Solving for p_rgh, Initial residual = 0.00961231, Final residual = 0.000450352, No Iterations 10
time step continuity errors : sum local = 7.19954e-07, global = -6.84361e-20, cumulative = 2.2936e-18
DICPCG:  Solving for p_rgh, Initial residual = 0.0014642, Final residual = 9.28698e-08, No Iterations 91
time step continuity errors : sum local = 1.46181e-10, global = 1.60138e-19, cumulative = 2.45374e-18
ExecutionTime = 5.69 s  ClockTime = 7 s

Courant Number mean: 0.0788177 max: 0.46634
Interface Courant Number mean: 0.00779857 max: 0.46634
deltaT = 0.00263158
Time = 0.15

PIMPLE: iteration 1
MULES: Solving for alpha.water
Phase-1 volume fraction = 0.25  Min(alpha.water) = 2.27749e-92  Max(alpha.water) = 1
MULES: Solving for alpha.water
Phase-1 volume fraction = 0.25  Min(alpha.water) = 6.95673e-92  Max(alpha.water) = 1
DICPCG:  Solving for p_rgh, Initial residual = 0.0393685, Final residual = 0.00186929, No Iterations 5
time step continuity errors : sum local = 2.93673e-06, global = 3.58901e-20, cumulative = 2.48963e-18
DICPCG:  Solving for p_rgh, Initial residual = 0.00952417, Final residual = 0.000359875, No Iterations 10
time step continuity errors : sum local = 5.72965e-07, global = -8.58611e-21, cumulative = 2.48104e-18
DICPCG:  Solving for p_rgh, Initial residual = 0.00145025, Final residual = 9.86962e-08, No Iterations 92
time step continuity errors : sum local = 1.53138e-10, global = -7.70014e-20, cumulative = 2.40404e-18
ExecutionTime = 6.13 s  ClockTime = 7 s

Courant Number mean: 0.0790211 max: 0.464223
Interface Courant Number mean: 0.00810343 max: 0.464158
deltaT = 0.00277778
Time = 0.152778

PIMPLE: iteration 1
MULES: Solving for alpha.water
Phase-1 volume fraction = 0.25  Min(alpha.water) = 2.18187e-91  Max(alpha.water) = 1
MULES: Solving for alpha.water
Phase-1 volume fraction = 0.25  Min(alpha.water) = 6.66967e-91  Max(alpha.water) = 1
DICPCG:  Solving for p_rgh, Initial residual = 0.0443466, Final residual = 0.00174139, No Iterations 4
time step continuity errors : sum local = 2.99755e-06, global = 3.57283e-21, cumulative = 2.40761e-18
DICPCG:  Solving for p_rgh, Initial residual = 0.009503, Final residual = 0.000391396, No Iterations 10
time step continuity errors : sum local = 6.8122e-07, global = -5.63038e-20, cumulative = 2.35131e-18
DICPCG:  Solving for p_rgh, Initial residual = 0.00160813, Final residual = 9.04899e-08, No Iterations 91
time step continuity errors : sum local = 1.55573e-10, global = -2.74319e-20, cumulative = 2.32388e-18
ExecutionTime = 6.2 s  ClockTime = 7 s

Courant Number mean: 0.0836219 max: 0.490035
Interface Courant Number mean: 0.00853692 max: 0.490035
deltaT = 0.00277778
Time = 0.155556

PIMPLE: iteration 1
MULES: Solving for alpha.water
Phase-1 volume fraction = 0.25  Min(alpha.water) = 2.02083e-90  Max(alpha.water) = 1
MULES: Solving for alpha.water
Phase-1 volume fraction = 0.25  Min(alpha.water) = 5.98274e-90  Max(alpha.water) = 1
DICPCG:  Solving for p_rgh, Initial residual = 0.0407846, Final residual = 0.0019874, No Iterations 5
time step continuity errors : sum local = 3.47953e-06, global = -7.16548e-20, cumulative = 2.25222e-18
DICPCG:  Solving for p_rgh, Initial residual = 0.00961309, Final residual = 0.000328169, No Iterations 10
time step continuity errors : sum local = 5.81953e-07, global = -1.35788e-19, cumulative = 2.11644e-18
DICPCG:  Solving for p_rgh, Initial residual = 0.00149831, Final residual = 9.31289e-08, No Iterations 90
time step continuity errors : sum local = 1.62967e-10, global = 1.00192e-19, cumulative = 2.21663e-18
ExecutionTime = 6.27 s  ClockTime = 7 s

Courant Number mean: 0.0838316 max: 0.489304
Interface Courant Number mean: 0.00876132 max: 0.489304
deltaT = 0.00277778
Time = 0.158333

PIMPLE: iteration 1
MULES: Solving for alpha.water
Phase-1 volume fraction = 0.25  Min(alpha.water) = 1.75906e-89  Max(alpha.water) = 1
MULES: Solving for alpha.water
Phase-1 volume fraction = 0.25  Min(alpha.water) = 5.07259e-89  Max(alpha.water) = 1
DICPCG:  Solving for p_rgh, Initial residual = 0.0417418, Final residual = 0.00183816, No Iterations 5
time step continuity errors : sum local = 3.24289e-06, global = 2.98349e-20, cumulative = 2.24646e-18
DICPCG:  Solving for p_rgh, Initial residual = 0.0093668, Final residual = 0.000353724, No Iterations 10
time step continuity errors : sum local = 6.49831e-07, global = 3.57987e-20, cumulative = 2.28226e-18
DICPCG:  Solving for p_rgh, Initial residual = 0.00151967, Final residual = 9.28656e-08, No Iterations 88
time step continuity errors : sum local = 1.65242e-10, global = -3.30303e-20, cumulative = 2.24923e-18
ExecutionTime = 6.34 s  ClockTime = 7 s

Courant Number mean: 0.0840471 max: 0.487834
Interface Courant Number mean: 0.00876608 max: 0.487834
deltaT = 0.00277778
Time = 0.161111

PIMPLE: iteration 1
MULES: Solving for alpha.water
Phase-1 volume fraction = 0.25  Min(alpha.water) = 1.45523e-88  Max(alpha.water) = 1
MULES: Solving for alpha.water
Phase-1 volume fraction = 0.25  Min(alpha.water) = 4.10263e-88  Max(alpha.water) = 1
DICPCG:  Solving for p_rgh, Initial residual = 0.0404739, Final residual = 0.00194424, No Iterations 5
time step continuity errors : sum local = 3.48396e-06, global = -4.17914e-20, cumulative = 2.20744e-18
DICPCG:  Solving for p_rgh, Initial residual = 0.00961972, Final residual = 0.000350692, No Iterations 10
time step continuity errors : sum local = 6.26551e-07, global = 1.086e-19, cumulative = 2.31604e-18
DICPCG:  Solving for p_rgh, Initial residual = 0.0014816, Final residual = 9.99031e-08, No Iterations 88
time step continuity errors : sum local = 1.78476e-10, global = -2.14522e-20, cumulative = 2.29459e-18
ExecutionTime = 6.41 s  ClockTime = 7 s

Courant Number mean: 0.0842506 max: 0.485909
Interface Courant Number mean: 0.00861568 max: 0.485909
deltaT = 0.00277778
Time = 0.163889

PIMPLE: iteration 1
MULES: Solving for alpha.water
Phase-1 volume fraction = 0.25  Min(alpha.water) = 1.14978e-87  Max(alpha.water) = 1
MULES: Solving for alpha.water
Phase-1 volume fraction = 0.25  Min(alpha.water) = 3.1654e-87  Max(alpha.water) = 1
DICPCG:  Solving for p_rgh, Initial residual = 0.041332, Final residual = 0.00170774, No Iterations 4
time step continuity errors : sum local = 3.04189e-06, global = -7.62674e-20, cumulative = 2.21832e-18
DICPCG:  Solving for p_rgh, Initial residual = 0.0089779, Final residual = 0.00039507, No Iterations 10
time step continuity errors : sum local = 7.15415e-07, global = 4.61124e-20, cumulative = 2.26443e-18
DICPCG:  Solving for p_rgh, Initial residual = 0.00151435, Final residual = 8.24081e-08, No Iterations 92
time step continuity errors : sum local = 1.46615e-10, global = -6.09116e-20, cumulative = 2.20352e-18
ExecutionTime = 6.48 s  ClockTime = 7 s

Courant Number mean: 0.0844484 max: 0.483139
Interface Courant Number mean: 0.0084362 max: 0.483139
deltaT = 0.00277778
Time = 0.166667

PIMPLE: iteration 1
MULES: Solving for alpha.water
Phase-1 volume fraction = 0.25  Min(alpha.water) = 8.64259e-87  Max(alpha.water) = 1
MULES: Solving for alpha.water
Phase-1 volume fraction = 0.25  Min(alpha.water) = 2.31645e-86  Max(alpha.water) = 1
DICPCG:  Solving for p_rgh, Initial residual = 0.0420787, Final residual = 0.00196882, No Iterations 5
time step continuity errors : sum local = 3.55572e-06, global = 1.84829e-19, cumulative = 2.38835e-18
DICPCG:  Solving for p_rgh, Initial residual = 0.00924787, Final residual = 0.000440826, No Iterations 10
time step continuity errors : sum local = 8.25173e-07, global = -4.48267e-20, cumulative = 2.34352e-18
DICPCG:  Solving for p_rgh, Initial residual = 0.00148689, Final residual = 8.1133e-08, No Iterations 92
time step continuity errors : sum local = 1.45232e-10, global = 1.91917e-20, cumulative = 2.36271e-18
ExecutionTime = 6.55 s  ClockTime = 8 s

Courant Number mean: 0.0846459 max: 0.480704
Interface Courant Number mean: 0.00859679 max: 0.478955
deltaT = 0.00277778
Time = 0.169444

PIMPLE: iteration 1
MULES: Solving for alpha.water
Phase-1 volume fraction = 0.25  Min(alpha.water) = 6.14305e-86  Max(alpha.water) = 1
MULES: Solving for alpha.water
Phase-1 volume fraction = 0.25  Min(alpha.water) = 1.5993e-85  Max(alpha.water) = 1
DICPCG:  Solving for p_rgh, Initial residual = 0.0393406, Final residual = 0.00177417, No Iterations 5
time step continuity errors : sum local = 3.19742e-06, global = -1.88153e-20, cumulative = 2.3439e-18
DICPCG:  Solving for p_rgh, Initial residual = 0.0089222, Final residual = 0.00033718, No Iterations 10
time step continuity errors : sum local = 6.08701e-07, global = -4.63867e-20, cumulative = 2.29751e-18
DICPCG:  Solving for p_rgh, Initial residual = 0.00136013, Final residual = 7.85151e-08, No Iterations 92
time step continuity errors : sum local = 1.41701e-10, global = -7.02015e-20, cumulative = 2.22731e-18
ExecutionTime = 6.62 s  ClockTime = 8 s

Courant Number mean: 0.0848522 max: 0.4804
Interface Courant Number mean: 0.00889846 max: 0.474154
deltaT = 0.00277778
Time = 0.172222

PIMPLE: iteration 1
MULES: Solving for alpha.water
Phase-1 volume fraction = 0.25  Min(alpha.water) = 4.11694e-85  Max(alpha.water) = 1
MULES: Solving for alpha.water
Phase-1 volume fraction = 0.25  Min(alpha.water) = 1.04111e-84  Max(alpha.water) = 1
DICPCG:  Solving for p_rgh, Initial residual = 0.0341412, Final residual = 0.00138632, No Iterations 6
time step continuity errors : sum local = 2.55134e-06, global = 1.70188e-20, cumulative = 2.24433e-18
DICPCG:  Solving for p_rgh, Initial residual = 0.00880464, Final residual = 0.000306602, No Iterations 10
time step continuity errors : sum local = 5.80467e-07, global = 6.30301e-20, cumulative = 2.30736e-18
DICPCG:  Solving for p_rgh, Initial residual = 0.00134149, Final residual = 8.85102e-08, No Iterations 92
time step continuity errors : sum local = 1.59432e-10, global = -7.21189e-20, cumulative = 2.23524e-18
ExecutionTime = 6.69 s  ClockTime = 8 s

Courant Number mean: 0.0850511 max: 0.479579
Interface Courant Number mean: 0.00896126 max: 0.472364
deltaT = 0.00277778
Time = 0.175

PIMPLE: iteration 1
MULES: Solving for alpha.water
Phase-1 volume fraction = 0.25  Min(alpha.water) = 2.60299e-84  Max(alpha.water) = 1
MULES: Solving for alpha.water
Phase-1 volume fraction = 0.25  Min(alpha.water) = 6.40039e-84  Max(alpha.water) = 1
DICPCG:  Solving for p_rgh, Initial residual = 0.0377798, Final residual = 0.00172254, No Iterations 5
time step continuity errors : sum local = 3.10359e-06, global = 2.82948e-20, cumulative = 2.26354e-18
DICPCG:  Solving for p_rgh, Initial residual = 0.00876222, Final residual = 0.000361711, No Iterations 10
time step continuity errors : sum local = 6.55889e-07, global = -6.44367e-20, cumulative = 2.1991e-18
DICPCG:  Solving for p_rgh, Initial residual = 0.00134507, Final residual = 9.13954e-08, No Iterations 92
time step continuity errors : sum local = 1.63524e-10, global = -4.30283e-21, cumulative = 2.1948e-18
ExecutionTime = 6.76 s  ClockTime = 8 s

Courant Number mean: 0.0852509 max: 0.478253
Interface Courant Number mean: 0.00907795 max: 0.472706
deltaT = 0.00277778
Time = 0.177778

PIMPLE: iteration 1
MULES: Solving for alpha.water
[...]
ExecutionTime = 49.18 s  ClockTime = 73 s

Courant Number mean: 0.0828438 max: 0.473542
Interface Courant Number mean: 0.03319 max: 0.473542
deltaT = 0.00555556
Time = 1.9

PIMPLE: iteration 1
MULES: Solving for alpha.water
Phase-1 volume fraction = 0.25  Min(alpha.water) = 2.9617e-28  Max(alpha.water) = 1
MULES: Solving for alpha.water
Phase-1 volume fraction = 0.25  Min(alpha.water) = 3.00338e-28  Max(alpha.water) = 1
DICPCG:  Solving for p_rgh, Initial residual = 0.120145, Final residual = 0.00414021, No Iterations 2
time step continuity errors : sum local = 5.01726e-05, global = -4.95026e-20, cumulative = 2.08864e-18
DICPCG:  Solving for p_rgh, Initial residual = 0.0079534, Final residual = 0.000351977, No Iterations 20
time step continuity errors : sum local = 4.33027e-06, global = 2.97901e-20, cumulative = 2.11843e-18
DICPCG:  Solving for p_rgh, Initial residual = 0.001475, Final residual = 9.35498e-08, No Iterations 94
time step continuity errors : sum local = 1.13432e-09, global = -2.03168e-19, cumulative = 1.91526e-18
ExecutionTime = 49.6 s  ClockTime = 74 s

Courant Number mean: 0.0828717 max: 0.473631
Interface Courant Number mean: 0.0332361 max: 0.473631
deltaT = 0.00555556
Time = 1.90556

PIMPLE: iteration 1
MULES: Solving for alpha.water
Phase-1 volume fraction = 0.25  Min(alpha.water) = 3.03636e-28  Max(alpha.water) = 1
MULES: Solving for alpha.water
Phase-1 volume fraction = 0.25  Min(alpha.water) = 3.07002e-28  Max(alpha.water) = 1
DICPCG:  Solving for p_rgh, Initial residual = 0.129488, Final residual = 0.00504999, No Iterations 3
time step continuity errors : sum local = 6.15637e-05, global = -7.23296e-20, cumulative = 1.84293e-18
DICPCG:  Solving for p_rgh, Initial residual = 0.00868688, Final residual = 0.00034533, No Iterations 26
time step continuity errors : sum local = 4.22608e-06, global = -2.03791e-20, cumulative = 1.82255e-18
DICPCG:  Solving for p_rgh, Initial residual = 0.00148992, Final residual = 9.68392e-08, No Iterations 94
time step continuity errors : sum local = 1.19429e-09, global = -7.8688e-20, cumulative = 1.74386e-18
ExecutionTime = 49.68 s  ClockTime = 74 s

Courant Number mean: 0.0828838 max: 0.47301
Interface Courant Number mean: 0.0331641 max: 0.47301
deltaT = 0.00555556
Time = 1.91111

PIMPLE: iteration 1
MULES: Solving for alpha.water
Phase-1 volume fraction = 0.25  Min(alpha.water) = 3.11155e-28  Max(alpha.water) = 1
MULES: Solving for alpha.water
Phase-1 volume fraction = 0.25  Min(alpha.water) = 3.15396e-28  Max(alpha.water) = 1
DICPCG:  Solving for p_rgh, Initial residual = 0.116852, Final residual = 0.00396726, No Iterations 2
time step continuity errors : sum local = 4.8549e-05, global = 9.74545e-21, cumulative = 1.75361e-18
DICPCG:  Solving for p_rgh, Initial residual = 0.00819213, Final residual = 0.000337141, No Iterations 18
time step continuity errors : sum local = 4.45498e-06, global = -5.66697e-20, cumulative = 1.69694e-18
DICPCG:  Solving for p_rgh, Initial residual = 0.00150243, Final residual = 7.15546e-08, No Iterations 95
time step continuity errors : sum local = 8.76415e-10, global = -2.06576e-19, cumulative = 1.49036e-18
ExecutionTime = 49.75 s  ClockTime = 74 s

Courant Number mean: 0.0829182 max: 0.47238
Interface Courant Number mean: 0.0336547 max: 0.47238
deltaT = 0.00555556
Time = 1.91667

PIMPLE: iteration 1
MULES: Solving for alpha.water
Phase-1 volume fraction = 0.25  Min(alpha.water) = 3.20681e-28  Max(alpha.water) = 1
MULES: Solving for alpha.water
Phase-1 volume fraction = 0.25  Min(alpha.water) = 3.26083e-28  Max(alpha.water) = 1
DICPCG:  Solving for p_rgh, Initial residual = 0.117201, Final residual = 0.00367559, No Iterations 2
time step continuity errors : sum local = 4.45506e-05, global = 2.15614e-19, cumulative = 1.70597e-18
DICPCG:  Solving for p_rgh, Initial residual = 0.00747261, Final residual = 0.000364967, No Iterations 17
time step continuity errors : sum local = 4.50485e-06, global = 1.58226e-19, cumulative = 1.8642e-18
DICPCG:  Solving for p_rgh, Initial residual = 0.00143957, Final residual = 9.57556e-08, No Iterations 94
time step continuity errors : sum local = 1.14873e-09, global = -5.17932e-20, cumulative = 1.81241e-18
ExecutionTime = 49.82 s  ClockTime = 75 s

Courant Number mean: 0.0830212 max: 0.471223
Interface Courant Number mean: 0.03328 max: 0.471223
deltaT = 0.00555556
Time = 1.92222

PIMPLE: iteration 1
MULES: Solving for alpha.water
Phase-1 volume fraction = 0.25  Min(alpha.water) = 3.32702e-28  Max(alpha.water) = 1
MULES: Solving for alpha.water
Phase-1 volume fraction = 0.25  Min(alpha.water) = 3.39475e-28  Max(alpha.water) = 1
DICPCG:  Solving for p_rgh, Initial residual = 0.120661, Final residual = 0.00599069, No Iterations 2
time step continuity errors : sum local = 7.21105e-05, global = 3.88179e-20, cumulative = 1.85123e-18
DICPCG:  Solving for p_rgh, Initial residual = 0.00954323, Final residual = 0.000455267, No Iterations 18
time step continuity errors : sum local = 5.65141e-06, global = -7.86382e-20, cumulative = 1.77259e-18
DICPCG:  Solving for p_rgh, Initial residual = 0.00163219, Final residual = 9.9675e-08, No Iterations 93
time step continuity errors : sum local = 1.20986e-09, global = -4.33133e-20, cumulative = 1.72927e-18
ExecutionTime = 49.9 s  ClockTime = 75 s

Courant Number mean: 0.0831294 max: 0.470532
Interface Courant Number mean: 0.0332544 max: 0.470532
deltaT = 0.00555556
Time = 1.92778

PIMPLE: iteration 1
MULES: Solving for alpha.water
Phase-1 volume fraction = 0.25  Min(alpha.water) = 3.49402e-28  Max(alpha.water) = 1
MULES: Solving for alpha.water
Phase-1 volume fraction = 0.25  Min(alpha.water) = 3.596e-28  Max(alpha.water) = 1
DICPCG:  Solving for p_rgh, Initial residual = 0.104341, Final residual = 0.00505535, No Iterations 2
time step continuity errors : sum local = 6.15595e-05, global = -6.13395e-20, cumulative = 1.66793e-18
DICPCG:  Solving for p_rgh, Initial residual = 0.00868218, Final residual = 0.000350747, No Iterations 28
time step continuity errors : sum local = 4.49657e-06, global = 8.84049e-20, cumulative = 1.75634e-18
DICPCG:  Solving for p_rgh, Initial residual = 0.00149536, Final residual = 8.77826e-08, No Iterations 93
time step continuity errors : sum local = 1.07523e-09, global = -1.88111e-19, cumulative = 1.56823e-18
ExecutionTime = 49.97 s  ClockTime = 75 s

Courant Number mean: 0.0832144 max: 0.467662
Interface Courant Number mean: 0.033405 max: 0.467662
deltaT = 0.00555556
Time = 1.93333

PIMPLE: iteration 1
MULES: Solving for alpha.water
Phase-1 volume fraction = 0.25  Min(alpha.water) = 3.73037e-28  Max(alpha.water) = 1
MULES: Solving for alpha.water
Phase-1 volume fraction = 0.25  Min(alpha.water) = 3.86894e-28  Max(alpha.water) = 1
DICPCG:  Solving for p_rgh, Initial residual = 0.11381, Final residual = 0.00434413, No Iterations 2
time step continuity errors : sum local = 5.25893e-05, global = 7.4794e-20, cumulative = 1.64302e-18
DICPCG:  Solving for p_rgh, Initial residual = 0.00804026, Final residual = 0.000399304, No Iterations 17
time step continuity errors : sum local = 4.83494e-06, global = 3.62909e-21, cumulative = 1.64665e-18
DICPCG:  Solving for p_rgh, Initial residual = 0.00152121, Final residual = 9.48539e-08, No Iterations 96
time step continuity errors : sum local = 1.13306e-09, global = -9.80398e-20, cumulative = 1.54861e-18
ExecutionTime = 50.05 s  ClockTime = 75 s

Courant Number mean: 0.083244 max: 0.467106
Interface Courant Number mean: 0.0336472 max: 0.467106
deltaT = 0.00555556
Time = 1.93889

PIMPLE: iteration 1
MULES: Solving for alpha.water
Phase-1 volume fraction = 0.25  Min(alpha.water) = 4.04905e-28  Max(alpha.water) = 1
MULES: Solving for alpha.water
Phase-1 volume fraction = 0.25  Min(alpha.water) = 4.23566e-28  Max(alpha.water) = 1
DICPCG:  Solving for p_rgh, Initial residual = 0.147549, Final residual = 0.0047489, No Iterations 3
time step continuity errors : sum local = 5.6449e-05, global = 9.28745e-20, cumulative = 1.64149e-18
DICPCG:  Solving for p_rgh, Initial residual = 0.00923058, Final residual = 0.00046142, No Iterations 18
time step continuity errors : sum local = 5.52484e-06, global = 1.40781e-19, cumulative = 1.78227e-18
DICPCG:  Solving for p_rgh, Initial residual = 0.00170234, Final residual = 9.0802e-08, No Iterations 96
time step continuity errors : sum local = 1.07434e-09, global = -1.51995e-19, cumulative = 1.63027e-18
ExecutionTime = 50.12 s  ClockTime = 75 s

Courant Number mean: 0.0830439 max: 0.463513
Interface Courant Number mean: 0.0334372 max: 0.463513
deltaT = 0.00555556
Time = 1.94444

PIMPLE: iteration 1
MULES: Solving for alpha.water
Phase-1 volume fraction = 0.25  Min(alpha.water) = 4.47668e-28  Max(alpha.water) = 1
MULES: Solving for alpha.water
Phase-1 volume fraction = 0.25  Min(alpha.water) = 4.72781e-28  Max(alpha.water) = 1
DICPCG:  Solving for p_rgh, Initial residual = 0.111154, Final residual = 0.00407277, No Iterations 2
time step continuity errors : sum local = 4.78795e-05, global = -1.06928e-21, cumulative = 1.6292e-18
DICPCG:  Solving for p_rgh, Initial residual = 0.00828476, Final residual = 0.000346588, No Iterations 15
time step continuity errors : sum local = 4.1344e-06, global = 7.32883e-20, cumulative = 1.70249e-18
DICPCG:  Solving for p_rgh, Initial residual = 0.00153789, Final residual = 8.05089e-08, No Iterations 95
time step continuity errors : sum local = 9.44255e-10, global = 4.64849e-20, cumulative = 1.74898e-18
ExecutionTime = 50.2 s  ClockTime = 75 s

Courant Number mean: 0.0829161 max: 0.474132
Interface Courant Number mean: 0.0337909 max: 0.474132
deltaT = 0.00555556
Time = 1.95

PIMPLE: iteration 1
MULES: Solving for alpha.water
Phase-1 volume fraction = 0.25  Min(alpha.water) = 5.03446e-28  Max(alpha.water) = 1
MULES: Solving for alpha.water
Phase-1 volume fraction = 0.25  Min(alpha.water) = 5.35553e-28  Max(alpha.water) = 1
DICPCG:  Solving for p_rgh, Initial residual = 0.119172, Final residual = 0.00473758, No Iterations 2
time step continuity errors : sum local = 5.47449e-05, global = 1.54197e-21, cumulative = 1.75052e-18
DICPCG:  Solving for p_rgh, Initial residual = 0.00844267, Final residual = 0.00034047, No Iterations 12
time step continuity errors : sum local = 3.90615e-06, global = 6.23325e-20, cumulative = 1.81285e-18
DICPCG:  Solving for p_rgh, Initial residual = 0.00155963, Final residual = 8.10404e-08, No Iterations 93
time step continuity errors : sum local = 9.28474e-10, global = 4.94897e-21, cumulative = 1.8178e-18
ExecutionTime = 50.63 s  ClockTime = 78 s

Courant Number mean: 0.0827939 max: 0.486239
Interface Courant Number mean: 0.0335701 max: 0.486239
deltaT = 0.00555556
Time = 1.95556

PIMPLE: iteration 1
MULES: Solving for alpha.water
Phase-1 volume fraction = 0.25  Min(alpha.water) = 5.7356e-28  Max(alpha.water) = 1
MULES: Solving for alpha.water
Phase-1 volume fraction = 0.25  Min(alpha.water) = 6.13524e-28  Max(alpha.water) = 1
DICPCG:  Solving for p_rgh, Initial residual = 0.126862, Final residual = 0.00528675, No Iterations 2
time step continuity errors : sum local = 5.97965e-05, global = -7.68059e-20, cumulative = 1.74099e-18
DICPCG:  Solving for p_rgh, Initial residual = 0.00890224, Final residual = 0.000371264, No Iterations 18
time step continuity errors : sum local = 4.63484e-06, global = -1.59991e-20, cumulative = 1.72499e-18
DICPCG:  Solving for p_rgh, Initial residual = 0.00166511, Final residual = 9.49586e-08, No Iterations 97
time step continuity errors : sum local = 1.06449e-09, global = 2.22972e-19, cumulative = 1.94797e-18
ExecutionTime = 50.7 s  ClockTime = 78 s

Courant Number mean: 0.0826603 max: 0.478331
Interface Courant Number mean: 0.0332929 max: 0.478331
deltaT = 0.00555556
Time = 1.96111

PIMPLE: iteration 1
MULES: Solving for alpha.water
Phase-1 volume fraction = 0.25  Min(alpha.water) = -2.07635e-11  Max(alpha.water) = 1
MULES: Solving for alpha.water
Phase-1 volume fraction = 0.25  Min(alpha.water) = 7.08599e-28  Max(alpha.water) = 1
DICPCG:  Solving for p_rgh, Initial residual = 0.12881, Final residual = 0.00439752, No Iterations 2
time step continuity errors : sum local = 4.96927e-05, global = -2.20231e-20, cumulative = 1.92594e-18
DICPCG:  Solving for p_rgh, Initial residual = 0.00854343, Final residual = 0.000396126, No Iterations 12
time step continuity errors : sum local = 4.6929e-06, global = 6.86356e-20, cumulative = 1.99458e-18
DICPCG:  Solving for p_rgh, Initial residual = 0.00161457, Final residual = 9.4344e-08, No Iterations 95
time step continuity errors : sum local = 1.07418e-09, global = 3.3731e-20, cumulative = 2.02831e-18
ExecutionTime = 50.77 s  ClockTime = 78 s

Courant Number mean: 0.0825085 max: 0.471884
Interface Courant Number mean: 0.0340264 max: 0.471884
deltaT = 0.00555556
Time = 1.96667

PIMPLE: iteration 1
MULES: Solving for alpha.water
Phase-1 volume fraction = 0.25  Min(alpha.water) = 7.63543e-28  Max(alpha.water) = 1
MULES: Solving for alpha.water
Phase-1 volume fraction = 0.25  Min(alpha.water) = 8.21664e-28  Max(alpha.water) = 1
DICPCG:  Solving for p_rgh, Initial residual = 0.112927, Final residual = 0.00335088, No Iterations 2
time step continuity errors : sum local = 3.8576e-05, global = 1.86123e-20, cumulative = 2.04692e-18
DICPCG:  Solving for p_rgh, Initial residual = 0.00776536, Final residual = 0.000345817, No Iterations 12
time step continuity errors : sum local = 4.11568e-06, global = -2.98044e-20, cumulative = 2.01712e-18
DICPCG:  Solving for p_rgh, Initial residual = 0.0014687, Final residual = 8.68033e-08, No Iterations 94
time step continuity errors : sum local = 1.01024e-09, global = -8.93341e-20, cumulative = 1.92778e-18
ExecutionTime = 50.84 s  ClockTime = 78 s

Courant Number mean: 0.0823818 max: 0.466224
Interface Courant Number mean: 0.0341752 max: 0.466224
deltaT = 0.00555556
Time = 1.97222

PIMPLE: iteration 1
MULES: Solving for alpha.water
Phase-1 volume fraction = 0.25  Min(alpha.water) = 8.85101e-28  Max(alpha.water) = 1
MULES: Solving for alpha.water
Phase-1 volume fraction = 0.25  Min(alpha.water) = 9.52279e-28  Max(alpha.water) = 1
DICPCG:  Solving for p_rgh, Initial residual = 0.108587, Final residual = 0.00388215, No Iterations 2
time step continuity errors : sum local = 4.54796e-05, global = 4.47152e-21, cumulative = 1.93225e-18
DICPCG:  Solving for p_rgh, Initial residual = 0.00783495, Final residual = 0.000366097, No Iterations 13
time step continuity errors : sum local = 4.53427e-06, global = 4.49153e-21, cumulative = 1.93675e-18
DICPCG:  Solving for p_rgh, Initial residual = 0.00149395, Final residual = 7.83749e-08, No Iterations 94
time step continuity errors : sum local = 9.23967e-10, global = -1.11587e-19, cumulative = 1.82516e-18
ExecutionTime = 50.91 s  ClockTime = 78 s

Courant Number mean: 0.0822475 max: 0.468139
Interface Courant Number mean: 0.0340209 max: 0.468139
deltaT = 0.00555556
Time = 1.97778

PIMPLE: iteration 1
MULES: Solving for alpha.water
Phase-1 volume fraction = 0.25  Min(alpha.water) = 1.02538e-27  Max(alpha.water) = 1
MULES: Solving for alpha.water
Phase-1 volume fraction = 0.25  Min(alpha.water) = 1.10285e-27  Max(alpha.water) = 1
DICPCG:  Solving for p_rgh, Initial residual = 0.106306, Final residual = 0.00335092, No Iterations 2
time step continuity errors : sum local = 3.95573e-05, global = -1.09301e-19, cumulative = 1.71586e-18
DICPCG:  Solving for p_rgh, Initial residual = 0.00756005, Final residual = 0.000344696, No Iterations 16
time step continuity errors : sum local = 4.15714e-06, global = 1.11674e-19, cumulative = 1.82753e-18
DICPCG:  Solving for p_rgh, Initial residual = 0.00142891, Final residual = 7.54959e-08, No Iterations 95
time step continuity errors : sum local = 8.96365e-10, global = 9.52342e-20, cumulative = 1.92277e-18
ExecutionTime = 50.99 s  ClockTime = 78 s

Courant Number mean: 0.0820545 max: 0.470891
Interface Courant Number mean: 0.0338099 max: 0.470891
deltaT = 0.00555556
Time = 1.98333

PIMPLE: iteration 1
MULES: Solving for alpha.water
Phase-1 volume fraction = 0.25  Min(alpha.water) = 1.18522e-27  Max(alpha.water) = 1
MULES: Solving for alpha.water
Phase-1 volume fraction = 0.25  Min(alpha.water) = 1.2725e-27  Max(alpha.water) = 1
DICPCG:  Solving for p_rgh, Initial residual = 0.107943, Final residual = 0.00327138, No Iterations 2
time step continuity errors : sum local = 3.87447e-05, global = 1.02048e-20, cumulative = 1.93297e-18
DICPCG:  Solving for p_rgh, Initial residual = 0.00743755, Final residual = 0.000353328, No Iterations 13
time step continuity errors : sum local = 4.32127e-06, global = 6.60321e-20, cumulative = 1.999e-18
DICPCG:  Solving for p_rgh, Initial residual = 0.00143467, Final residual = 9.89706e-08, No Iterations 92
time step continuity errors : sum local = 1.17483e-09, global = 2.37585e-21, cumulative = 2.00138e-18
ExecutionTime = 51.06 s  ClockTime = 78 s

Courant Number mean: 0.0818721 max: 0.47219
Interface Courant Number mean: 0.0341737 max: 0.47219
deltaT = 0.00555556
Time = 1.98889

PIMPLE: iteration 1
MULES: Solving for alpha.water
Phase-1 volume fraction = 0.25  Min(alpha.water) = 1.28604e-27  Max(alpha.water) = 1
MULES: Solving for alpha.water
Phase-1 volume fraction = 0.25  Min(alpha.water) = 1.29632e-27  Max(alpha.water) = 1
DICPCG:  Solving for p_rgh, Initial residual = 0.112095, Final residual = 0.00352687, No Iterations 2
time step continuity errors : sum local = 4.19147e-05, global = 1.27526e-19, cumulative = 2.12891e-18
DICPCG:  Solving for p_rgh, Initial residual = 0.00809955, Final residual = 0.000354465, No Iterations 12
time step continuity errors : sum local = 4.35749e-06, global = -2.58456e-21, cumulative = 2.12632e-18
DICPCG:  Solving for p_rgh, Initial residual = 0.00149577, Final residual = 6.47384e-08, No Iterations 93
time step continuity errors : sum local = 7.75337e-10, global = 3.10327e-20, cumulative = 2.15735e-18
ExecutionTime = 51.13 s  ClockTime = 78 s

Courant Number mean: 0.0817626 max: 0.471335
Interface Courant Number mean: 0.0340304 max: 0.471335
deltaT = 0.00555556
Time = 1.99444

PIMPLE: iteration 1
MULES: Solving for alpha.water
Phase-1 volume fraction = 0.25  Min(alpha.water) = 1.30757e-27  Max(alpha.water) = 1
MULES: Solving for alpha.water
Phase-1 volume fraction = 0.25  Min(alpha.water) = 1.3202e-27  Max(alpha.water) = 1
DICPCG:  Solving for p_rgh, Initial residual = 0.114965, Final residual = 0.00493633, No Iterations 2
time step continuity errors : sum local = 5.9207e-05, global = -2.38748e-20, cumulative = 2.13348e-18
DICPCG:  Solving for p_rgh, Initial residual = 0.00902547, Final residual = 0.000446518, No Iterations 15
time step continuity errors : sum local = 5.57585e-06, global = 8.10172e-20, cumulative = 2.2145e-18
DICPCG:  Solving for p_rgh, Initial residual = 0.00164722, Final residual = 6.50626e-08, No Iterations 96
time step continuity errors : sum local = 7.88139e-10, global = 2.37614e-20, cumulative = 2.23826e-18
ExecutionTime = 51.2 s  ClockTime = 78 s

Courant Number mean: 0.0816614 max: 0.467183
Interface Courant Number mean: 0.0339189 max: 0.467183
deltaT = 0.00555556
Time = 2

PIMPLE: iteration 1
MULES: Solving for alpha.water
Phase-1 volume fraction = 0.25  Min(alpha.water) = 1.33274e-27  Max(alpha.water) = 1
MULES: Solving for alpha.water
Phase-1 volume fraction = 0.25  Min(alpha.water) = 1.34666e-27  Max(alpha.water) = 1
DICPCG:  Solving for p_rgh, Initial residual = 0.101872, Final residual = 0.00321029, No Iterations 2
time step continuity errors : sum local = 3.89368e-05, global = -2.61773e-20, cumulative = 2.21208e-18
DICPCG:  Solving for p_rgh, Initial residual = 0.0075481, Final residual = 0.000328036, No Iterations 24
time step continuity errors : sum local = 4.23517e-06, global = 9.09018e-20, cumulative = 2.30298e-18
DICPCG:  Solving for p_rgh, Initial residual = 0.00144509, Final residual = 8.65965e-08, No Iterations 93
time step continuity errors : sum local = 1.05529e-09, global = -1.39482e-20, cumulative = 2.28903e-18
ExecutionTime = 51.62 s  ClockTime = 80 s

End

