/*---------------------------------------------------------------------------*\
| =========                 |                                                 |
| \\      /  F ield         | OpenFOAM: The Open Source CFD Toolbox           |
|  \\    /   O peration     | Version:  2.4.0                                 |
|   \\  /    A nd           | Web:      www.OpenFOAM.org                      |
|    \\/     M anipulation  |                                                 |
\*---------------------------------------------------------------------------*/
Build  : 2.4.0-dcea1e13ff76
Exec   : interFoam
Date   : Nov 01 2016
Time   : 14:14:28
Host   : "t04-021"
PID    : 25630
Case   : /work/job.5464063/sample
nProcs : 1
fileModificationChecking : Monitoring run-time modified files using timeStampMaster
allowSystemOperations : Allowing user-supplied system call operations

// * * * * * * * * * * * * * * * * * * * * * * * * * * * * * * * * * * * * * //
Create time

Create mesh for time = 0


PIMPLE: Operating solver in PISO mode

Reading field p_rgh

Reading field U

Reading/calculating face flux field phi

Reading transportProperties

Selecting incompressible transport model Newtonian
Selecting incompressible transport model Newtonian
Selecting turbulence model type laminar

Reading g
Calculating field g.h

Creating finite volume options from "constant/fvOptions"

Selecting finite volume options model type MRFSource
    Source: MRF1
    - applying source for all time
    - selecting cells using cellZone rotor
    - selected 1536 cell(s) with volume 0.000100459

time step continuity errors : sum local = 0, global = 0, cumulative = 0
DICPCG:  Solving for pcorr, Initial residual = 0, Final residual = 0, No Iterations 0
time step continuity errors : sum local = 0, global = 0, cumulative = 0
Courant Number mean: 0 max: 0

Starting time loop

Courant Number mean: 0 max: 0
Interface Courant Number mean: 0 max: 0
deltaT = 0.00119048
Time = 0.00119048

PIMPLE: iteration 1
MULES: Solving for alpha.water
Phase-1 volume fraction = 0.25  Min(alpha.water) = 0  Max(alpha.water) = 1
MULES: Solving for alpha.water
Phase-1 volume fraction = 0.25  Min(alpha.water) = 0  Max(alpha.water) = 1
DICPCG:  Solving for p_rgh, Initial residual = 1, Final residual = 0.048601, No Iterations 62
time step continuity errors : sum local = 0.000102133, global = -7.95953e-21, cumulative = -7.95953e-21
DICPCG:  Solving for p_rgh, Initial residual = 0.0523991, Final residual = 0.0023811, No Iterations 34
time step continuity errors : sum local = 1.3342e-05, global = -6.92129e-20, cumulative = -7.71725e-20
DICPCG:  Solving for p_rgh, Initial residual = 0.00352776, Final residual = 8.8517e-08, No Iterations 93
time step continuity errors : sum local = 3.91303e-10, global = 2.28783e-20, cumulative = -5.42942e-20
ExecutionTime = 0.38 s  ClockTime = 1 s

Courant Number mean: 0.0335791 max: 0.344144
Interface Courant Number mean: 0 max: 0
deltaT = 0.00135356
Time = 0.00254403

PIMPLE: iteration 1
MULES: Solving for alpha.water
Phase-1 volume fraction = 0.25  Min(alpha.water) = 0  Max(alpha.water) = 1
MULES: Solving for alpha.water
Phase-1 volume fraction = 0.25  Min(alpha.water) = 0  Max(alpha.water) = 1
DICPCG:  Solving for p_rgh, Initial residual = 0.652479, Final residual = 0.0309058, No Iterations 60
time step continuity errors : sum local = 0.000142306, global = 1.3116e-20, cumulative = -4.11782e-20
DICPCG:  Solving for p_rgh, Initial residual = 0.0670006, Final residual = 0.00280985, No Iterations 29
time step continuity errors : sum local = 9.48437e-06, global = 5.81787e-20, cumulative = 1.70005e-20
DICPCG:  Solving for p_rgh, Initial residual = 0.00595995, Final residual = 9.11611e-08, No Iterations 96
time step continuity errors : sum local = 2.65834e-10, global = -7.59747e-20, cumulative = -5.89742e-20
ExecutionTime = 0.48 s  ClockTime = 1 s

Courant Number mean: 0.0383319 max: 0.411696
Interface Courant Number mean: 0.000728722 max: 0.398863
deltaT = 0.00149932
Time = 0.00404335

PIMPLE: iteration 1
MULES: Solving for alpha.water
Phase-1 volume fraction = 0.25  Min(alpha.water) = 0  Max(alpha.water) = 1
MULES: Solving for alpha.water
Phase-1 volume fraction = 0.25  Min(alpha.water) = 0  Max(alpha.water) = 1
DICPCG:  Solving for p_rgh, Initial residual = 0.361812, Final residual = 0.0180098, No Iterations 9
time step continuity errors : sum local = 5.27877e-05, global = -9.33581e-20, cumulative = -1.52332e-19
DICPCG:  Solving for p_rgh, Initial residual = 0.0400171, Final residual = 0.0018713, No Iterations 25
time step continuity errors : sum local = 4.45081e-06, global = 1.02837e-20, cumulative = -1.42049e-19
DICPCG:  Solving for p_rgh, Initial residual = 0.0052974, Final residual = 7.06425e-08, No Iterations 94
time step continuity errors : sum local = 1.60523e-10, global = -1.06037e-20, cumulative = -1.52652e-19
ExecutionTime = 0.55 s  ClockTime = 1 s

Courant Number mean: 0.0422046 max: 0.458196
Interface Courant Number mean: 0.000792855 max: 0.428824
deltaT = 0.00162638
Time = 0.00566974

PIMPLE: iteration 1
MULES: Solving for alpha.water
Phase-1 volume fraction = 0.25  Min(alpha.water) = 0  Max(alpha.water) = 1
MULES: Solving for alpha.water
Phase-1 volume fraction = 0.25  Min(alpha.water) = 0  Max(alpha.water) = 1
DICPCG:  Solving for p_rgh, Initial residual = 0.197354, Final residual = 0.00927428, No Iterations 8
time step continuity errors : sum local = 2.26688e-05, global = 6.32308e-21, cumulative = -1.46329e-19
DICPCG:  Solving for p_rgh, Initial residual = 0.0271937, Final residual = 0.00110556, No Iterations 15
time step continuity errors : sum local = 2.63964e-06, global = 8.35695e-20, cumulative = -6.27596e-20
DICPCG:  Solving for p_rgh, Initial residual = 0.00471806, Final residual = 8.92146e-08, No Iterations 92
time step continuity errors : sum local = 1.91234e-10, global = -7.59323e-20, cumulative = -1.38692e-19
ExecutionTime = 0.62 s  ClockTime = 1 s

Courant Number mean: 0.0455337 max: 0.493879
Interface Courant Number mean: 0.00119253 max: 0.449177
deltaT = 0.00162638
Time = 0.00729612

PIMPLE: iteration 1
MULES: Solving for alpha.water
Phase-1 volume fraction = 0.25  Min(alpha.water) = 0  Max(alpha.water) = 1
MULES: Solving for alpha.water
Phase-1 volume fraction = 0.25  Min(alpha.water) = 0  Max(alpha.water) = 1
DICPCG:  Solving for p_rgh, Initial residual = 0.121138, Final residual = 0.00554592, No Iterations 2
time step continuity errors : sum local = 1.13801e-05, global = -2.21915e-19, cumulative = -3.60607e-19
DICPCG:  Solving for p_rgh, Initial residual = 0.0188577, Final residual = 0.000941548, No Iterations 18
time step continuity errors : sum local = 1.85746e-06, global = -2.00523e-20, cumulative = -3.80659e-19
DICPCG:  Solving for p_rgh, Initial residual = 0.00377514, Final residual = 7.13668e-08, No Iterations 91
time step continuity errors : sum local = 1.38313e-10, global = 9.51013e-20, cumulative = -2.85558e-19
ExecutionTime = 0.7 s  ClockTime = 1 s

Courant Number mean: 0.0452898 max: 0.489676
Interface Courant Number mean: 0.00145382 max: 0.346891
deltaT = 0.00165543
Time = 0.00895155

PIMPLE: iteration 1
MULES: Solving for alpha.water
Phase-1 volume fraction = 0.25  Min(alpha.water) = 0  Max(alpha.water) = 1
MULES: Solving for alpha.water
Phase-1 volume fraction = 0.25  Min(alpha.water) = 0  Max(alpha.water) = 1
DICPCG:  Solving for p_rgh, Initial residual = 0.0968652, Final residual = 0.00425679, No Iterations 2
time step continuity errors : sum local = 8.20989e-06, global = 7.05165e-20, cumulative = -2.15041e-19
DICPCG:  Solving for p_rgh, Initial residual = 0.017528, Final residual = 0.000731632, No Iterations 23
time step continuity errors : sum local = 1.38917e-06, global = 8.02e-20, cumulative = -1.34841e-19
DICPCG:  Solving for p_rgh, Initial residual = 0.00329621, Final residual = 9.69047e-08, No Iterations 93
time step continuity errors : sum local = 1.77437e-10, global = -5.28868e-20, cumulative = -1.87728e-19
ExecutionTime = 0.77 s  ClockTime = 1 s

Courant Number mean: 0.0458517 max: 0.493037
Interface Courant Number mean: 0.00137189 max: 0.35533
deltaT = 0.00165543
Time = 0.010607

PIMPLE: iteration 1
MULES: Solving for alpha.water
Phase-1 volume fraction = 0.25  Min(alpha.water) = 0  Max(alpha.water) = 1
MULES: Solving for alpha.water
Phase-1 volume fraction = 0.25  Min(alpha.water) = 0  Max(alpha.water) = 1
DICPCG:  Solving for p_rgh, Initial residual = 0.0782703, Final residual = 0.00370289, No Iterations 2
time step continuity errors : sum local = 6.6328e-06, global = 8.99211e-20, cumulative = -9.78072e-20
DICPCG:  Solving for p_rgh, Initial residual = 0.0160001, Final residual = 0.000750279, No Iterations 14
time step continuity errors : sum local = 1.4109e-06, global = -1.50518e-20, cumulative = -1.12859e-19
DICPCG:  Solving for p_rgh, Initial residual = 0.0029704, Final residual = 9.2223e-08, No Iterations 92
time step continuity errors : sum local = 1.58895e-10, global = -1.82221e-20, cumulative = -1.31081e-19
ExecutionTime = 0.84 s  ClockTime = 1 s

Courant Number mean: 0.0456381 max: 0.487057
Interface Courant Number mean: 0.00128898 max: 0.355418
deltaT = 0.00168666
Time = 0.0122936

PIMPLE: iteration 1
MULES: Solving for alpha.water
Phase-1 volume fraction = 0.25  Min(alpha.water) = 0  Max(alpha.water) = 1
MULES: Solving for alpha.water
Phase-1 volume fraction = 0.25  Min(alpha.water) = 0  Max(alpha.water) = 1
DICPCG:  Solving for p_rgh, Initial residual = 0.0670813, Final residual = 0.00313455, No Iterations 2
time step continuity errors : sum local = 5.44206e-06, global = 3.09505e-20, cumulative = -1.00131e-19
DICPCG:  Solving for p_rgh, Initial residual = 0.0153906, Final residual = 0.000712741, No Iterations 20
time step continuity errors : sum local = 1.27148e-06, global = 7.47297e-20, cumulative = -2.54009e-20
DICPCG:  Solving for p_rgh, Initial residual = 0.002956, Final residual = 9.42255e-08, No Iterations 90
time step continuity errors : sum local = 1.55855e-10, global = -6.95069e-20, cumulative = -9.49079e-20
ExecutionTime = 0.92 s  ClockTime = 1 s

Courant Number mean: 0.0463055 max: 0.490446
Interface Courant Number mean: 0.00133491 max: 0.361237
deltaT = 0.00168666
Time = 0.0139803

PIMPLE: iteration 1
MULES: Solving for alpha.water
Phase-1 volume fraction = 0.25  Min(alpha.water) = 0  Max(alpha.water) = 1
MULES: Solving for alpha.water
Phase-1 volume fraction = 0.25  Min(alpha.water) = 0  Max(alpha.water) = 1
DICPCG:  Solving for p_rgh, Initial residual = 0.064583, Final residual = 0.00310168, No Iterations 2
time step continuity errors : sum local = 5.00904e-06, global = 2.53444e-20, cumulative = -6.95635e-20
DICPCG:  Solving for p_rgh, Initial residual = 0.0157365, Final residual = 0.000781829, No Iterations 20
time step continuity errors : sum local = 1.25177e-06, global = -2.5239e-20, cumulative = -9.48025e-20
DICPCG:  Solving for p_rgh, Initial residual = 0.00295412, Final residual = 7.58216e-08, No Iterations 93
time step continuity errors : sum local = 1.16906e-10, global = -2.71457e-20, cumulative = -1.21948e-19
ExecutionTime = 0.99 s  ClockTime = 1 s

Courant Number mean: 0.0461618 max: 0.484822
Interface Courant Number mean: 0.00169648 max: 0.359309
deltaT = 0.00172039
Time = 0.0157007

PIMPLE: iteration 1
MULES: Solving for alpha.water
Phase-1 volume fraction = 0.25  Min(alpha.water) = 0  Max(alpha.water) = 1
MULES: Solving for alpha.water
Phase-1 volume fraction = 0.25  Min(alpha.water) = 0  Max(alpha.water) = 1
DICPCG:  Solving for p_rgh, Initial residual = 0.0647256, Final residual = 0.00282589, No Iterations 2
time step continuity errors : sum local = 4.38927e-06, global = -1.15868e-19, cumulative = -2.37817e-19
DICPCG:  Solving for p_rgh, Initial residual = 0.015801, Final residual = 0.000737034, No Iterations 11
time step continuity errors : sum local = 1.09866e-06, global = 9.25989e-20, cumulative = -1.45218e-19
DICPCG:  Solving for p_rgh, Initial residual = 0.00295535, Final residual = 7.44976e-08, No Iterations 94
time step continuity errors : sum local = 1.10241e-10, global = 2.75278e-20, cumulative = -1.1769e-19
ExecutionTime = 1.06 s  ClockTime = 1 s

Courant Number mean: 0.0469393 max: 0.488672
Interface Courant Number mean: 0.0015357 max: 0.33236
deltaT = 0.00175624
Time = 0.0174569

PIMPLE: iteration 1
MULES: Solving for alpha.water
Phase-1 volume fraction = 0.25  Min(alpha.water) = 0  Max(alpha.water) = 1
MULES: Solving for alpha.water
Phase-1 volume fraction = 0.25  Min(alpha.water) = 0  Max(alpha.water) = 1
DICPCG:  Solving for p_rgh, Initial residual = 0.0625379, Final residual = 0.0026669, No Iterations 3
time step continuity errors : sum local = 3.97576e-06, global = 2.61838e-20, cumulative = -9.15063e-20
DICPCG:  Solving for p_rgh, Initial residual = 0.0167639, Final residual = 0.000745895, No Iterations 11
time step continuity errors : sum local = 1.11136e-06, global = -1.39041e-20, cumulative = -1.0541e-19
DICPCG:  Solving for p_rgh, Initial residual = 0.00317701, Final residual = 8.92835e-08, No Iterations 92
time step continuity errors : sum local = 1.26307e-10, global = 3.49811e-20, cumulative = -7.04293e-20
ExecutionTime = 1.13 s  ClockTime = 2 s

Courant Number mean: 0.047803 max: 0.492325
Interface Courant Number mean: 0.00159143 max: 0.333289
deltaT = 0.00175624
Time = 0.0192132

PIMPLE: iteration 1
MULES: Solving for alpha.water
Phase-1 volume fraction = 0.25  Min(alpha.water) = 0  Max(alpha.water) = 1
MULES: Solving for alpha.water
Phase-1 volume fraction = 0.25  Min(alpha.water) = 0  Max(alpha.water) = 1
DICPCG:  Solving for p_rgh, Initial residual = 0.0622629, Final residual = 0.002882, No Iterations 3
time step continuity errors : sum local = 3.97415e-06, global = 1.14351e-19, cumulative = 4.39222e-20
DICPCG:  Solving for p_rgh, Initial residual = 0.0163846, Final residual = 0.000724011, No Iterations 21
time step continuity errors : sum local = 1.00836e-06, global = 8.67023e-20, cumulative = 1.30625e-19
DICPCG:  Solving for p_rgh, Initial residual = 0.00310657, Final residual = 9.32496e-08, No Iterations 91
time step continuity errors : sum local = 1.23829e-10, global = 4.00056e-20, cumulative = 1.7063e-19
ExecutionTime = 1.2 s  ClockTime = 2 s

Courant Number mean: 0.0477241 max: 0.485425
Interface Courant Number mean: 0.00157405 max: 0.335201
deltaT = 0.00179526
Time = 0.0210084

PIMPLE: iteration 1
MULES: Solving for alpha.water
Phase-1 volume fraction = 0.25  Min(alpha.water) = 0  Max(alpha.water) = 1
MULES: Solving for alpha.water
Phase-1 volume fraction = 0.25  Min(alpha.water) = 0  Max(alpha.water) = 1
DICPCG:  Solving for p_rgh, Initial residual = 0.0611167, Final residual = 0.00289476, No Iterations 2
time step continuity errors : sum local = 3.8898e-06, global = -2.97467e-20, cumulative = 1.40883e-19
DICPCG:  Solving for p_rgh, Initial residual = 0.0163626, Final residual = 0.000787257, No Iterations 7
time step continuity errors : sum local = 1.02471e-06, global = 2.59243e-20, cumulative = 1.66808e-19
DICPCG:  Solving for p_rgh, Initial residual = 0.00307029, Final residual = 9.74343e-08, No Iterations 92
time step continuity errors : sum local = 1.26551e-10, global = -7.47655e-20, cumulative = 9.20422e-20
ExecutionTime = 1.27 s  ClockTime = 2 s

Courant Number mean: 0.0487076 max: 0.488678
Interface Courant Number mean: 0.00184286 max: 0.344768
deltaT = 0.00179526
Time = 0.0228037

PIMPLE: iteration 1
MULES: Solving for alpha.water
Phase-1 volume fraction = 0.25  Min(alpha.water) = 0  Max(alpha.water) = 1
MULES: Solving for alpha.water
Phase-1 volume fraction = 0.25  Min(alpha.water) = 0  Max(alpha.water) = 1
DICPCG:  Solving for p_rgh, Initial residual = 0.0546236, Final residual = 0.00217616, No Iterations 3
time step continuity errors : sum local = 2.77337e-06, global = -5.25113e-20, cumulative = 3.95309e-20
DICPCG:  Solving for p_rgh, Initial residual = 0.0155716, Final residual = 0.000759146, No Iterations 9
time step continuity errors : sum local = 9.43971e-07, global = -2.92244e-20, cumulative = 1.03065e-20
DICPCG:  Solving for p_rgh, Initial residual = 0.00293329, Final residual = 8.8298e-08, No Iterations 91
time step continuity errors : sum local = 1.0911e-10, global = -8.17275e-20, cumulative = -7.1421e-20
ExecutionTime = 1.34 s  ClockTime = 2 s

Courant Number mean: 0.0486394 max: 0.480523
Interface Courant Number mean: 0.00210654 max: 0.346114
deltaT = 0.00183801
Time = 0.0246417

PIMPLE: iteration 1
MULES: Solving for alpha.water
Phase-1 volume fraction = 0.25  Min(alpha.water) = 0  Max(alpha.water) = 1
MULES: Solving for alpha.water
Phase-1 volume fraction = 0.25  Min(alpha.water) = 0  Max(alpha.water) = 1
DICPCG:  Solving for p_rgh, Initial residual = 0.0558706, Final residual = 0.00245923, No Iterations 3
time step continuity errors : sum local = 3.11479e-06, global = -1.65038e-20, cumulative = -8.79247e-20
DICPCG:  Solving for p_rgh, Initial residual = 0.0159769, Final residual = 0.000779994, No Iterations 11
time step continuity errors : sum local = 9.89983e-07, global = 5.57692e-20, cumulative = -3.21555e-20
DICPCG:  Solving for p_rgh, Initial residual = 0.00304059, Final residual = 9.55935e-08, No Iterations 93
time step continuity errors : sum local = 1.16813e-10, global = -5.92232e-20, cumulative = -9.13787e-20
ExecutionTime = 1.41 s  ClockTime = 2 s

Courant Number mean: 0.0497521 max: 0.482689
Interface Courant Number mean: 0.00201842 max: 0.333557
deltaT = 0.00188396
Time = 0.0265257

PIMPLE: iteration 1
MULES: Solving for alpha.water
Phase-1 volume fraction = 0.25  Min(alpha.water) = 0  Max(alpha.water) = 1
MULES: Solving for alpha.water
Phase-1 volume fraction = 0.25  Min(alpha.water) = 0  Max(alpha.water) = 1
DICPCG:  Solving for p_rgh, Initial residual = 0.0550155, Final residual = 0.00257963, No Iterations 3
time step continuity errors : sum local = 3.26079e-06, global = -5.07517e-20, cumulative = -1.4213e-19
DICPCG:  Solving for p_rgh, Initial residual = 0.0160534, Final residual = 0.000701104, No Iterations 8
time step continuity errors : sum local = 8.91118e-07, global = 7.87104e-20, cumulative = -6.342e-20
DICPCG:  Solving for p_rgh, Initial residual = 0.00298893, Final residual = 8.06695e-08, No Iterations 94
time step continuity errors : sum local = 9.92352e-11, global = 6.91499e-20, cumulative = 5.72985e-21
ExecutionTime = 1.48 s  ClockTime = 2 s

Courant Number mean: 0.0509591 max: 0.484325
Interface Courant Number mean: 0.00183589 max: 0.343771
deltaT = 0.00193354
Time = 0.0284592

PIMPLE: iteration 1
MULES: Solving for alpha.water
Phase-1 volume fraction = 0.25  Min(alpha.water) = 0  Max(alpha.water) = 1
MULES: Solving for alpha.water
Phase-1 volume fraction = 0.25  Min(alpha.water) = 0  Max(alpha.water) = 1
DICPCG:  Solving for p_rgh, Initial residual = 0.0518617, Final residual = 0.00231708, No Iterations 4
time step continuity errors : sum local = 2.98043e-06, global = 4.31478e-20, cumulative = 4.88777e-20
DICPCG:  Solving for p_rgh, Initial residual = 0.0165723, Final residual = 0.00074105, No Iterations 14
time step continuity errors : sum local = 9.47934e-07, global = -2.38094e-20, cumulative = 2.50682e-20
DICPCG:  Solving for p_rgh, Initial residual = 0.00302241, Final residual = 9.3213e-08, No Iterations 94
time step continuity errors : sum local = 1.16919e-10, global = 8.14813e-20, cumulative = 1.06549e-19
ExecutionTime = 1.55 s  ClockTime = 2 s

Courant Number mean: 0.0522821 max: 0.485294
Interface Courant Number mean: 0.00203536 max: 0.350057
deltaT = 0.00198724
Time = 0.0304464

PIMPLE: iteration 1
MULES: Solving for alpha.water
Phase-1 volume fraction = 0.25  Min(alpha.water) = 0  Max(alpha.water) = 1
MULES: Solving for alpha.water
Phase-1 volume fraction = 0.25  Min(alpha.water) = 0  Max(alpha.water) = 1
DICPCG:  Solving for p_rgh, Initial residual = 0.0496602, Final residual = 0.00241918, No Iterations 4
time step continuity errors : sum local = 3.17623e-06, global = -3.66264e-21, cumulative = 1.02887e-19
DICPCG:  Solving for p_rgh, Initial residual = 0.0167869, Final residual = 0.000757741, No Iterations 15
time step continuity errors : sum local = 1.046e-06, global = 2.5526e-20, cumulative = 1.28413e-19
DICPCG:  Solving for p_rgh, Initial residual = 0.0031346, Final residual = 8.20429e-08, No Iterations 91
time step continuity errors : sum local = 1.05604e-10, global = 1.25281e-19, cumulative = 2.53694e-19
ExecutionTime = 1.63 s  ClockTime = 2 s

Courant Number mean: 0.0537215 max: 0.485974
Interface Courant Number mean: 0.00224944 max: 0.357453
deltaT = 0.00198724
Time = 0.0324337

PIMPLE: iteration 1
MULES: Solving for alpha.water
Phase-1 volume fraction = 0.25  Min(alpha.water) = 0  Max(alpha.water) = 1
MULES: Solving for alpha.water
Phase-1 volume fraction = 0.25  Min(alpha.water) = 0  Max(alpha.water) = 1
DICPCG:  Solving for p_rgh, Initial residual = 0.0404703, Final residual = 0.0016671, No Iterations 7
time step continuity errors : sum local = 2.17385e-06, global = 2.87144e-20, cumulative = 2.82408e-19
DICPCG:  Solving for p_rgh, Initial residual = 0.0164837, Final residual = 0.000785191, No Iterations 8
time step continuity errors : sum local = 9.90431e-07, global = 1.96383e-20, cumulative = 3.02046e-19
DICPCG:  Solving for p_rgh, Initial residual = 0.00305729, Final residual = 9.94729e-08, No Iterations 91
time step continuity errors : sum local = 1.2514e-10, global = -1.1549e-19, cumulative = 1.86556e-19
ExecutionTime = 1.7 s  ClockTime = 2 s

Courant Number mean: 0.0537173 max: 0.472833
Interface Courant Number mean: 0.00253108 max: 0.354336
deltaT = 0.00204746
Time = 0.0344811

PIMPLE: iteration 1
MULES: Solving for alpha.water
Phase-1 volume fraction = 0.25  Min(alpha.water) = 0  Max(alpha.water) = 1
MULES: Solving for alpha.water
Phase-1 volume fraction = 0.25  Min(alpha.water) = 0  Max(alpha.water) = 1
DICPCG:  Solving for p_rgh, Initial residual = 0.0448977, Final residual = 0.00217817, No Iterations 6
time step continuity errors : sum local = 2.89659e-06, global = 5.9787e-20, cumulative = 2.46343e-19
DICPCG:  Solving for p_rgh, Initial residual = 0.0169795, Final residual = 0.000808819, No Iterations 10
time step continuity errors : sum local = 1.04099e-06, global = 3.87191e-21, cumulative = 2.50215e-19
DICPCG:  Solving for p_rgh, Initial residual = 0.00309392, Final residual = 8.63904e-08, No Iterations 89
time step continuity errors : sum local = 1.10859e-10, global = 9.04507e-20, cumulative = 3.40666e-19
ExecutionTime = 1.77 s  ClockTime = 2 s

Courant Number mean: 0.0553593 max: 0.473288
Interface Courant Number mean: 0.00231507 max: 0.363163
deltaT = 0.00211351
Time = 0.0365947

PIMPLE: iteration 1
MULES: Solving for alpha.water
Phase-1 volume fraction = 0.25  Min(alpha.water) = 0  Max(alpha.water) = 1
MULES: Solving for alpha.water
Phase-1 volume fraction = 0.25  Min(alpha.water) = 0  Max(alpha.water) = 1
DICPCG:  Solving for p_rgh, Initial residual = 0.0494148, Final residual = 0.0024428, No Iterations 8
time step continuity errors : sum local = 3.28657e-06, global = -1.38938e-19, cumulative = 2.01728e-19
DICPCG:  Solving for p_rgh, Initial residual = 0.0178656, Final residual = 0.000746503, No Iterations 19
time step continuity errors : sum local = 1.03163e-06, global = 3.87294e-20, cumulative = 2.40457e-19
DICPCG:  Solving for p_rgh, Initial residual = 0.00325141, Final residual = 8.1081e-08, No Iterations 93
time step continuity errors : sum local = 1.05622e-10, global = -2.17379e-20, cumulative = 2.18719e-19
ExecutionTime = 1.84 s  ClockTime = 2 s

Courant Number mean: 0.0571607 max: 0.473951
Interface Courant Number mean: 0.00252459 max: 0.374672
deltaT = 0.00218639
Time = 0.038781

PIMPLE: iteration 1
MULES: Solving for alpha.water
Phase-1 volume fraction = 0.25  Min(alpha.water) = 0  Max(alpha.water) = 1
MULES: Solving for alpha.water
Phase-1 volume fraction = 0.25  Min(alpha.water) = 0  Max(alpha.water) = 1
DICPCG:  Solving for p_rgh, Initial residual = 0.0486234, Final residual = 0.00236002, No Iterations 5
time step continuity errors : sum local = 3.29564e-06, global = 1.15236e-19, cumulative = 3.33955e-19
DICPCG:  Solving for p_rgh, Initial residual = 0.0173773, Final residual = 0.000708912, No Iterations 14
time step continuity errors : sum local = 9.6945e-07, global = 1.51162e-19, cumulative = 4.85117e-19
DICPCG:  Solving for p_rgh, Initial residual = 0.00317776, Final residual = 7.31316e-08, No Iterations 95
time step continuity errors : sum local = 9.88699e-11, global = -7.24599e-20, cumulative = 4.12657e-19
ExecutionTime = 1.91 s  ClockTime = 2 s

Courant Number mean: 0.0591674 max: 0.475092
Interface Courant Number mean: 0.0028865 max: 0.420359
deltaT = 0.00226737
Time = 0.0410484

PIMPLE: iteration 1
MULES: Solving for alpha.water
Phase-1 volume fraction = 0.25  Min(alpha.water) = 0  Max(alpha.water) = 1
MULES: Solving for alpha.water
Phase-1 volume fraction = 0.25  Min(alpha.water) = 0  Max(alpha.water) = 1
DICPCG:  Solving for p_rgh, Initial residual = 0.0484979, Final residual = 0.00210165, No Iterations 6
time step continuity errors : sum local = 3.04869e-06, global = -1.68084e-19, cumulative = 2.44573e-19
DICPCG:  Solving for p_rgh, Initial residual = 0.017528, Final residual = 0.000780492, No Iterations 14
time step continuity errors : sum local = 1.096e-06, global = -3.42624e-20, cumulative = 2.10311e-19
DICPCG:  Solving for p_rgh, Initial residual = 0.00326744, Final residual = 9.06127e-08, No Iterations 94
time step continuity errors : sum local = 1.26833e-10, global = -6.75169e-20, cumulative = 1.42794e-19
ExecutionTime = 1.99 s  ClockTime = 2 s

Courant Number mean: 0.0614082 max: 0.476939
Interface Courant Number mean: 0.00329812 max: 0.429983
deltaT = 0.00235806
Time = 0.0434065

PIMPLE: iteration 1
MULES: Solving for alpha.water
Phase-1 volume fraction = 0.25  Min(alpha.water) = 0  Max(alpha.water) = 1
MULES: Solving for alpha.water
Phase-1 volume fraction = 0.25  Min(alpha.water) = 0  Max(alpha.water) = 1
DICPCG:  Solving for p_rgh, Initial residual = 0.055367, Final residual = 0.00255409, No Iterations 6
time step continuity errors : sum local = 3.8532e-06, global = 5.19547e-20, cumulative = 1.94748e-19
DICPCG:  Solving for p_rgh, Initial residual = 0.0187829, Final residual = 0.000936799, No Iterations 21
time step continuity errors : sum local = 1.44427e-06, global = 6.69374e-20, cumulative = 2.61686e-19
DICPCG:  Solving for p_rgh, Initial residual = 0.00369686, Final residual = 9.8726e-08, No Iterations 92
time step continuity errors : sum local = 1.42742e-10, global = 5.06296e-20, cumulative = 3.12316e-19
ExecutionTime = 2.06 s  ClockTime = 2 s

Courant Number mean: 0.0639304 max: 0.480391
Interface Courant Number mean: 0.00351291 max: 0.439328
deltaT = 0.00235806
Time = 0.0457645

PIMPLE: iteration 1
MULES: Solving for alpha.water
Phase-1 volume fraction = 0.25  Min(alpha.water) = 0  Max(alpha.water) = 1
MULES: Solving for alpha.water
Phase-1 volume fraction = 0.25  Min(alpha.water) = 0  Max(alpha.water) = 1
DICPCG:  Solving for p_rgh, Initial residual = 0.0467969, Final residual = 0.00227948, No Iterations 6
time step continuity errors : sum local = 3.32649e-06, global = 2.45952e-22, cumulative = 3.12561e-19
DICPCG:  Solving for p_rgh, Initial residual = 0.0182948, Final residual = 0.000684531, No Iterations 14
time step continuity errors : sum local = 9.79684e-07, global = 4.18453e-20, cumulative = 3.54407e-19
DICPCG:  Solving for p_rgh, Initial residual = 0.00330615, Final residual = 9.69198e-08, No Iterations 94
time step continuity errors : sum local = 1.37039e-10, global = 2.87571e-20, cumulative = 3.83164e-19
ExecutionTime = 2.13 s  ClockTime = 3 s

Courant Number mean: 0.0640049 max: 0.466296
Interface Courant Number mean: 0.00378332 max: 0.430535
deltaT = 0.00246525
Time = 0.0482298

PIMPLE: iteration 1
MULES: Solving for alpha.water
Phase-1 volume fraction = 0.25  Min(alpha.water) = 0  Max(alpha.water) = 1
MULES: Solving for alpha.water
Phase-1 volume fraction = 0.25  Min(alpha.water) = 0  Max(alpha.water) = 1
DICPCG:  Solving for p_rgh, Initial residual = 0.0456298, Final residual = 0.00218611, No Iterations 6
time step continuity errors : sum local = 3.38961e-06, global = 1.44115e-19, cumulative = 5.27279e-19
DICPCG:  Solving for p_rgh, Initial residual = 0.018818, Final residual = 0.000746781, No Iterations 10
time step continuity errors : sum local = 1.12981e-06, global = -9.18539e-20, cumulative = 4.35425e-19
DICPCG:  Solving for p_rgh, Initial residual = 0.00356514, Final residual = 9.77684e-08, No Iterations 91
time step continuity errors : sum local = 1.46682e-10, global = 9.49893e-20, cumulative = 5.30414e-19
ExecutionTime = 2.2 s  ClockTime = 3 s

Courant Number mean: 0.0670031 max: 0.474175
Interface Courant Number mean: 0.00387323 max: 0.439559
deltaT = 0.00258851
Time = 0.0508183

PIMPLE: iteration 1
MULES: Solving for alpha.water
Phase-1 volume fraction = 0.25  Min(alpha.water) = 0  Max(alpha.water) = 1
MULES: Solving for alpha.water
Phase-1 volume fraction = 0.25  Min(alpha.water) = 0  Max(alpha.water) = 1
DICPCG:  Solving for p_rgh, Initial residual = 0.0522832, Final residual = 0.00229584, No Iterations 6
time step continuity errors : sum local = 3.75996e-06, global = 7.57723e-20, cumulative = 6.06187e-19
DICPCG:  Solving for p_rgh, Initial residual = 0.0194115, Final residual = 0.000809759, No Iterations 10
time step continuity errors : sum local = 1.27762e-06, global = -2.32689e-22, cumulative = 6.05954e-19
DICPCG:  Solving for p_rgh, Initial residual = 0.00381813, Final residual = 8.78774e-08, No Iterations 93
time step continuity errors : sum local = 1.38282e-10, global = -3.12824e-20, cumulative = 5.74671e-19
ExecutionTime = 2.27 s  ClockTime = 3 s

Courant Number mean: 0.070474 max: 0.486387
Interface Courant Number mean: 0.0042928 max: 0.454875
deltaT = 0.00258851
Time = 0.0534068

PIMPLE: iteration 1
MULES: Solving for alpha.water
Phase-1 volume fraction = 0.25  Min(alpha.water) = 0  Max(alpha.water) = 1
MULES: Solving for alpha.water
Phase-1 volume fraction = 0.25  Min(alpha.water) = 0  Max(alpha.water) = 1
DICPCG:  Solving for p_rgh, Initial residual = 0.0543756, Final residual = 0.00207232, No Iterations 6
time step continuity errors : sum local = 3.29236e-06, global = -6.19486e-20, cumulative = 5.12723e-19
DICPCG:  Solving for p_rgh, Initial residual = 0.0186148, Final residual = 0.000780156, No Iterations 10
time step continuity errors : sum local = 1.20958e-06, global = 9.10987e-20, cumulative = 6.03822e-19
DICPCG:  Solving for p_rgh, Initial residual = 0.00359955, Final residual = 9.04025e-08, No Iterations 89
time step continuity errors : sum local = 1.39051e-10, global = -1.58337e-19, cumulative = 4.45485e-19
ExecutionTime = 2.34 s  ClockTime = 3 s

Courant Number mean: 0.0706156 max: 0.475752
Interface Courant Number mean: 0.0044117 max: 0.456549
deltaT = 0.00258851
Time = 0.0559953

PIMPLE: iteration 1
MULES: Solving for alpha.water
Phase-1 volume fraction = 0.25  Min(alpha.water) = 0  Max(alpha.water) = 1
MULES: Solving for alpha.water
Phase-1 volume fraction = 0.25  Min(alpha.water) = 0  Max(alpha.water) = 1
DICPCG:  Solving for p_rgh, Initial residual = 0.0498177, Final residual = 0.00224319, No Iterations 7
time step continuity errors : sum local = 3.53568e-06, global = -9.9173e-20, cumulative = 3.46312e-19
DICPCG:  Solving for p_rgh, Initial residual = 0.0185812, Final residual = 0.000731322, No Iterations 10
time step continuity errors : sum local = 1.12714e-06, global = -1.53903e-20, cumulative = 3.30922e-19
DICPCG:  Solving for p_rgh, Initial residual = 0.00338724, Final residual = 9.84083e-08, No Iterations 92
time step continuity errors : sum local = 1.5029e-10, global = -3.99811e-20, cumulative = 2.90941e-19
ExecutionTime = 2.41 s  ClockTime = 3 s

Courant Number mean: 0.0707517 max: 0.468773
Interface Courant Number mean: 0.00471173 max: 0.457338
deltaT = 0.00275029
Time = 0.0587456

PIMPLE: iteration 1
MULES: Solving for alpha.water
Phase-1 volume fraction = 0.25  Min(alpha.water) = 0  Max(alpha.water) = 1
MULES: Solving for alpha.water
Phase-1 volume fraction = 0.25  Min(alpha.water) = 0  Max(alpha.water) = 1
DICPCG:  Solving for p_rgh, Initial residual = 0.0503319, Final residual = 0.00217385, No Iterations 7
time step continuity errors : sum local = 3.74289e-06, global = 4.87793e-20, cumulative = 3.3972e-19
DICPCG:  Solving for p_rgh, Initial residual = 0.0194293, Final residual = 0.000935183, No Iterations 9
time step continuity errors : sum local = 1.55266e-06, global = -7.60562e-20, cumulative = 2.63664e-19
DICPCG:  Solving for p_rgh, Initial residual = 0.00378216, Final residual = 9.98355e-08, No Iterations 91
time step continuity errors : sum local = 1.6585e-10, global = -1.01029e-20, cumulative = 2.53561e-19
ExecutionTime = 2.48 s  ClockTime = 3 s

Courant Number mean: 0.0753254 max: 0.498255
Interface Courant Number mean: 0.00485447 max: 0.485834
deltaT = 0.00275029
Time = 0.0614959

PIMPLE: iteration 1
MULES: Solving for alpha.water
Phase-1 volume fraction = 0.25  Min(alpha.water) = 0  Max(alpha.water) = 1
MULES: Solving for alpha.water
Phase-1 volume fraction = 0.25  Min(alpha.water) = 0  Max(alpha.water) = 1
DICPCG:  Solving for p_rgh, Initial residual = 0.0502565, Final residual = 0.00207668, No Iterations 7
time step continuity errors : sum local = 3.53152e-06, global = -2.00492e-20, cumulative = 2.33511e-19
DICPCG:  Solving for p_rgh, Initial residual = 0.0188663, Final residual = 0.000893265, No Iterations 9
time step continuity errors : sum local = 1.47986e-06, global = -8.2167e-20, cumulative = 1.51344e-19
DICPCG:  Solving for p_rgh, Initial residual = 0.003577, Final residual = 9.17206e-08, No Iterations 93
time step continuity errors : sum local = 1.51331e-10, global = 2.59012e-22, cumulative = 1.51603e-19
ExecutionTime = 2.55 s  ClockTime = 3 s

Courant Number mean: 0.0755007 max: 0.497144
Interface Courant Number mean: 0.00495588 max: 0.485356
deltaT = 0.00275029
Time = 0.0642462

PIMPLE: iteration 1
MULES: Solving for alpha.water
Phase-1 volume fraction = 0.25  Min(alpha.water) = 0  Max(alpha.water) = 1
MULES: Solving for alpha.water
Phase-1 volume fraction = 0.25  Min(alpha.water) = 0  Max(alpha.water) = 1
DICPCG:  Solving for p_rgh, Initial residual = 0.0476921, Final residual = 0.00206191, No Iterations 8
time step continuity errors : sum local = 3.49069e-06, global = -5.29159e-20, cumulative = 9.86875e-20
DICPCG:  Solving for p_rgh, Initial residual = 0.0187116, Final residual = 0.000891934, No Iterations 11
time step continuity errors : sum local = 1.46751e-06, global = -2.1611e-19, cumulative = -1.17422e-19
DICPCG:  Solving for p_rgh, Initial residual = 0.00332586, Final residual = 8.31298e-08, No Iterations 91
time step continuity errors : sum local = 1.36308e-10, global = -2.44665e-20, cumulative = -1.41889e-19
ExecutionTime = 2.63 s  ClockTime = 3 s

Courant Number mean: 0.0756753 max: 0.498175
Interface Courant Number mean: 0.00495863 max: 0.484329
deltaT = 0.00275029
Time = 0.0669965

PIMPLE: iteration 1
MULES: Solving for alpha.water
Phase-1 volume fraction = 0.25  Min(alpha.water) = 0  Max(alpha.water) = 1
MULES: Solving for alpha.water
Phase-1 volume fraction = 0.25  Min(alpha.water) = 0  Max(alpha.water) = 1
DICPCG:  Solving for p_rgh, Initial residual = 0.0504336, Final residual = 0.00216334, No Iterations 7
time step continuity errors : sum local = 3.63565e-06, global = -4.31404e-21, cumulative = -1.46203e-19
DICPCG:  Solving for p_rgh, Initial residual = 0.0178557, Final residual = 0.000690887, No Iterations 10
time step continuity errors : sum local = 1.15167e-06, global = 1.84473e-19, cumulative = 3.82707e-20
DICPCG:  Solving for p_rgh, Initial residual = 0.00316276, Final residual = 8.78911e-08, No Iterations 93
time step continuity errors : sum local = 1.42109e-10, global = 6.50154e-20, cumulative = 1.03286e-19
ExecutionTime = 2.7 s  ClockTime = 3 s

Courant Number mean: 0.0758583 max: 0.498948
Interface Courant Number mean: 0.00516433 max: 0.483605
deltaT = 0.00275029
Time = 0.0697468

PIMPLE: iteration 1
MULES: Solving for alpha.water
Phase-1 volume fraction = 0.25  Min(alpha.water) = 0  Max(alpha.water) = 1
MULES: Solving for alpha.water
Phase-1 volume fraction = 0.25  Min(alpha.water) = 0  Max(alpha.water) = 1
DICPCG:  Solving for p_rgh, Initial residual = 0.0478986, Final residual = 0.00222925, No Iterations 7
time step continuity errors : sum local = 3.7083e-06, global = -3.75508e-20, cumulative = 6.57353e-20
DICPCG:  Solving for p_rgh, Initial residual = 0.0173044, Final residual = 0.000658103, No Iterations 10
time step continuity errors : sum local = 1.09108e-06, global = -4.29706e-20, cumulative = 2.27647e-20
DICPCG:  Solving for p_rgh, Initial residual = 0.00303235, Final residual = 9.12638e-08, No Iterations 93
time step continuity errors : sum local = 1.46293e-10, global = 2.05164e-19, cumulative = 2.27928e-19
ExecutionTime = 2.77 s  ClockTime = 3 s

Courant Number mean: 0.0760444 max: 0.498671
Interface Courant Number mean: 0.00533946 max: 0.485551
deltaT = 0.00275029
Time = 0.0724971

PIMPLE: iteration 1
MULES: Solving for alpha.water
Phase-1 volume fraction = 0.25  Min(alpha.water) = 0  Max(alpha.water) = 1
MULES: Solving for alpha.water
Phase-1 volume fraction = 0.25  Min(alpha.water) = 0  Max(alpha.water) = 1
DICPCG:  Solving for p_rgh, Initial residual = 0.0540925, Final residual = 0.00231213, No Iterations 7
time step continuity errors : sum local = 3.74553e-06, global = 8.05627e-20, cumulative = 3.08491e-19
DICPCG:  Solving for p_rgh, Initial residual = 0.0171548, Final residual = 0.000742909, No Iterations 14
time step continuity errors : sum local = 1.17728e-06, global = -5.99776e-20, cumulative = 2.48514e-19
DICPCG:  Solving for p_rgh, Initial residual = 0.00308742, Final residual = 9.51791e-08, No Iterations 93
time step continuity errors : sum local = 1.49081e-10, global = -7.84218e-20, cumulative = 1.70092e-19
ExecutionTime = 2.84 s  ClockTime = 4 s

Courant Number mean: 0.076253 max: 0.49725
Interface Courant Number mean: 0.00550275 max: 0.487134
deltaT = 0.00275029
Time = 0.0752474

PIMPLE: iteration 1
MULES: Solving for alpha.water
Phase-1 volume fraction = 0.25  Min(alpha.water) = 0  Max(alpha.water) = 1
MULES: Solving for alpha.water
Phase-1 volume fraction = 0.25  Min(alpha.water) = 0  Max(alpha.water) = 1
DICPCG:  Solving for p_rgh, Initial residual = 0.0570473, Final residual = 0.00254421, No Iterations 5
time step continuity errors : sum local = 4.02145e-06, global = -1.79722e-19, cumulative = -9.62984e-21
DICPCG:  Solving for p_rgh, Initial residual = 0.0163206, Final residual = 0.000645942, No Iterations 10
time step continuity errors : sum local = 1.01814e-06, global = 1.20175e-20, cumulative = 2.38764e-21
DICPCG:  Solving for p_rgh, Initial residual = 0.0028965, Final residual = 8.28942e-08, No Iterations 90
time step continuity errors : sum local = 1.28657e-10, global = 2.03105e-20, cumulative = 2.26982e-20
ExecutionTime = 2.91 s  ClockTime = 4 s

Courant Number mean: 0.0764682 max: 0.494681
Interface Courant Number mean: 0.0056034 max: 0.488418
deltaT = 0.00275029
Time = 0.0779977

PIMPLE: iteration 1
MULES: Solving for alpha.water
Phase-1 volume fraction = 0.25  Min(alpha.water) = 0  Max(alpha.water) = 1
MULES: Solving for alpha.water
Phase-1 volume fraction = 0.25  Min(alpha.water) = 0  Max(alpha.water) = 1
DICPCG:  Solving for p_rgh, Initial residual = 0.0548667, Final residual = 0.00210876, No Iterations 8
time step continuity errors : sum local = 3.29914e-06, global = -1.13211e-19, cumulative = -9.05125e-20
DICPCG:  Solving for p_rgh, Initial residual = 0.0162531, Final residual = 0.000776609, No Iterations 10
time step continuity errors : sum local = 1.27767e-06, global = -1.30689e-19, cumulative = -2.21202e-19
DICPCG:  Solving for p_rgh, Initial residual = 0.00295455, Final residual = 7.59531e-08, No Iterations 91
time step continuity errors : sum local = 1.18412e-10, global = -6.04664e-20, cumulative = -2.81668e-19
ExecutionTime = 2.99 s  ClockTime = 4 s

Courant Number mean: 0.0766717 max: 0.496718
Interface Courant Number mean: 0.00614289 max: 0.489059
deltaT = 0.00275029
Time = 0.080748

PIMPLE: iteration 1
MULES: Solving for alpha.water
Phase-1 volume fraction = 0.25  Min(alpha.water) = 0  Max(alpha.water) = 1
MULES: Solving for alpha.water
Phase-1 volume fraction = 0.25  Min(alpha.water) = 0  Max(alpha.water) = 1
DICPCG:  Solving for p_rgh, Initial residual = 0.0455434, Final residual = 0.00201328, No Iterations 7
time step continuity errors : sum local = 3.24758e-06, global = -1.45877e-20, cumulative = -2.96256e-19
DICPCG:  Solving for p_rgh, Initial residual = 0.0161538, Final residual = 0.000752255, No Iterations 10
time step continuity errors : sum local = 1.20845e-06, global = -1.83677e-20, cumulative = -3.14624e-19
DICPCG:  Solving for p_rgh, Initial residual = 0.00286588, Final residual = 9.99896e-08, No Iterations 93
time step continuity errors : sum local = 1.55562e-10, global = -5.75979e-20, cumulative = -3.72222e-19
ExecutionTime = 3.06 s  ClockTime = 4 s

Courant Number mean: 0.0768776 max: 0.498768
Interface Courant Number mean: 0.0060681 max: 0.489084
deltaT = 0.00275029
Time = 0.0834982

PIMPLE: iteration 1
MULES: Solving for alpha.water
Phase-1 volume fraction = 0.25  Min(alpha.water) = 0  Max(alpha.water) = 1
MULES: Solving for alpha.water
Phase-1 volume fraction = 0.25  Min(alpha.water) = 0  Max(alpha.water) = 1
DICPCG:  Solving for p_rgh, Initial residual = 0.044565, Final residual = 0.00181299, No Iterations 7
time step continuity errors : sum local = 2.91531e-06, global = 1.37686e-20, cumulative = -3.58453e-19
DICPCG:  Solving for p_rgh, Initial residual = 0.0157569, Final residual = 0.00058999, No Iterations 10
time step continuity errors : sum local = 9.48136e-07, global = -1.21339e-19, cumulative = -4.79792e-19
DICPCG:  Solving for p_rgh, Initial residual = 0.00272769, Final residual = 7.64129e-08, No Iterations 94
time step continuity errors : sum local = 1.18961e-10, global = 1.12295e-19, cumulative = -3.67496e-19
ExecutionTime = 3.13 s  ClockTime = 4 s

Courant Number mean: 0.0770997 max: 0.499881
Interface Courant Number mean: 0.00611182 max: 0.488441
deltaT = 0.00275029
Time = 0.0862485

PIMPLE: iteration 1
MULES: Solving for alpha.water
Phase-1 volume fraction = 0.25  Min(alpha.water) = 0  Max(alpha.water) = 1
MULES: Solving for alpha.water
Phase-1 volume fraction = 0.25  Min(alpha.water) = 0  Max(alpha.water) = 1
DICPCG:  Solving for p_rgh, Initial residual = 0.0472872, Final residual = 0.00193706, No Iterations 7
time step continuity errors : sum local = 3.09074e-06, global = -8.69206e-20, cumulative = -4.54417e-19
DICPCG:  Solving for p_rgh, Initial residual = 0.0156776, Final residual = 0.000592918, No Iterations 10
time step continuity errors : sum local = 9.31062e-07, global = -9.5577e-20, cumulative = -5.49994e-19
DICPCG:  Solving for p_rgh, Initial residual = 0.00266985, Final residual = 8.70543e-08, No Iterations 90
time step continuity errors : sum local = 1.34264e-10, global = 6.06334e-20, cumulative = -4.89361e-19
ExecutionTime = 3.2 s  ClockTime = 5 s

Courant Number mean: 0.0773183 max: 0.500065
Interface Courant Number mean: 0.00651464 max: 0.487337
deltaT = 0.00229191
Time = 0.0885404

PIMPLE: iteration 1
MULES: Solving for alpha.water
Phase-1 volume fraction = 0.25  Min(alpha.water) = 0  Max(alpha.water) = 1
MULES: Solving for alpha.water
Phase-1 volume fraction = 0.25  Min(alpha.water) = 0  Max(alpha.water) = 1
DICPCG:  Solving for p_rgh, Initial residual = 0.0595402, Final residual = 0.00256018, No Iterations 7
time step continuity errors : sum local = 2.90637e-06, global = -1.30188e-19, cumulative = -6.19549e-19
DICPCG:  Solving for p_rgh, Initial residual = 0.0131116, Final residual = 0.000486205, No Iterations 10
time step continuity errors : sum local = 5.51053e-07, global = 1.19772e-20, cumulative = -6.07571e-19
DICPCG:  Solving for p_rgh, Initial residual = 0.00184642, Final residual = 8.22908e-08, No Iterations 89
time step continuity errors : sum local = 9.29787e-11, global = 1.34141e-19, cumulative = -4.7343e-19
ExecutionTime = 3.27 s  ClockTime = 5 s

Courant Number mean: 0.0645957 max: 0.416937
Interface Courant Number mean: 0.00570374 max: 0.408553
deltaT = 0.00229191
Time = 0.0908324

PIMPLE: iteration 1
MULES: Solving for alpha.water
Phase-1 volume fraction = 0.25  Min(alpha.water) = 0  Max(alpha.water) = 1
MULES: Solving for alpha.water
Phase-1 volume fraction = 0.25  Min(alpha.water) = 0  Max(alpha.water) = 1
DICPCG:  Solving for p_rgh, Initial residual = 0.0543224, Final residual = 0.00270833, No Iterations 6
time step continuity errors : sum local = 3.07002e-06, global = 1.44572e-19, cumulative = -3.28858e-19
DICPCG:  Solving for p_rgh, Initial residual = 0.0131182, Final residual = 0.000638394, No Iterations 13
time step continuity errors : sum local = 7.91489e-07, global = 8.25789e-21, cumulative = -3.206e-19
DICPCG:  Solving for p_rgh, Initial residual = 0.00206002, Final residual = 7.59627e-08, No Iterations 90
time step continuity errors : sum local = 8.52728e-11, global = -9.55822e-20, cumulative = -4.16183e-19
ExecutionTime = 3.34 s  ClockTime = 5 s

Courant Number mean: 0.0647476 max: 0.415944
Interface Courant Number mean: 0.00546851 max: 0.409948
deltaT = 0.00229191
Time = 0.0931243

PIMPLE: iteration 1
MULES: Solving for alpha.water
Phase-1 volume fraction = 0.25  Min(alpha.water) = 0  Max(alpha.water) = 1
MULES: Solving for alpha.water
Phase-1 volume fraction = 0.25  Min(alpha.water) = 0  Max(alpha.water) = 1
DICPCG:  Solving for p_rgh, Initial residual = 0.0411752, Final residual = 0.00158736, No Iterations 7
time step continuity errors : sum local = 1.81802e-06, global = 3.7773e-20, cumulative = -3.7841e-19
DICPCG:  Solving for p_rgh, Initial residual = 0.0124079, Final residual = 0.00044495, No Iterations 10
time step continuity errors : sum local = 4.9769e-07, global = -3.68806e-20, cumulative = -4.1529e-19
DICPCG:  Solving for p_rgh, Initial residual = 0.00181732, Final residual = 9.56721e-08, No Iterations 89
time step continuity errors : sum local = 1.05847e-10, global = -1.03711e-19, cumulative = -5.19001e-19
ExecutionTime = 3.41 s  ClockTime = 5 s

Courant Number mean: 0.0649019 max: 0.414486
Interface Courant Number mean: 0.00547682 max: 0.411101
deltaT = 0.00229191
Time = 0.0954162

PIMPLE: iteration 1
MULES: Solving for alpha.water
Phase-1 volume fraction = 0.25  Min(alpha.water) = 0  Max(alpha.water) = 1
MULES: Solving for alpha.water
Phase-1 volume fraction = 0.25  Min(alpha.water) = 3.59224e-134  Max(alpha.water) = 1
DICPCG:  Solving for p_rgh, Initial residual = 0.0417628, Final residual = 0.00160823, No Iterations 7
time step continuity errors : sum local = 1.84137e-06, global = 8.47609e-20, cumulative = -4.3424e-19
DICPCG:  Solving for p_rgh, Initial residual = 0.0122514, Final residual = 0.000570028, No Iterations 10
time step continuity errors : sum local = 6.50677e-07, global = -9.31233e-20, cumulative = -5.27364e-19
DICPCG:  Solving for p_rgh, Initial residual = 0.00187237, Final residual = 9.12081e-08, No Iterations 92
time step continuity errors : sum local = 1.00634e-10, global = -8.69457e-20, cumulative = -6.14309e-19
ExecutionTime = 3.48 s  ClockTime = 5 s

Courant Number mean: 0.0650523 max: 0.412539
Interface Courant Number mean: 0.00547469 max: 0.411936
deltaT = 0.00229191
Time = 0.0977081

PIMPLE: iteration 1
MULES: Solving for alpha.water
Phase-1 volume fraction = 0.25  Min(alpha.water) = 1.50085e-132  Max(alpha.water) = 1
MULES: Solving for alpha.water
Phase-1 volume fraction = 0.25  Min(alpha.water) = 4.28472e-131  Max(alpha.water) = 1
DICPCG:  Solving for p_rgh, Initial residual = 0.0441811, Final residual = 0.00200787, No Iterations 5
time step continuity errors : sum local = 2.25185e-06, global = 3.00322e-20, cumulative = -5.84277e-19
DICPCG:  Solving for p_rgh, Initial residual = 0.0114482, Final residual = 0.000430443, No Iterations 10
time step continuity errors : sum local = 4.87171e-07, global = 3.13787e-20, cumulative = -5.52899e-19
DICPCG:  Solving for p_rgh, Initial residual = 0.00173413, Final residual = 7.95021e-08, No Iterations 89
time step continuity errors : sum local = 8.88841e-11, global = -9.46095e-20, cumulative = -6.47508e-19
ExecutionTime = 3.56 s  ClockTime = 5 s

Courant Number mean: 0.0652146 max: 0.414165
Interface Courant Number mean: 0.00589464 max: 0.412324
deltaT = 0.00229191
Time = 0.1

PIMPLE: iteration 1
MULES: Solving for alpha.water
Phase-1 volume fraction = 0.25  Min(alpha.water) = 9.10531e-130  Max(alpha.water) = 1
MULES: Solving for alpha.water
Phase-1 volume fraction = 0.25  Min(alpha.water) = 1.57965e-128  Max(alpha.water) = 1
DICPCG:  Solving for p_rgh, Initial residual = 0.0444034, Final residual = 0.00176258, No Iterations 7
time step continuity errors : sum local = 2.02074e-06, global = -9.04601e-20, cumulative = -7.37968e-19
DICPCG:  Solving for p_rgh, Initial residual = 0.0114493, Final residual = 0.000545101, No Iterations 15
time step continuity errors : sum local = 6.34205e-07, global = -1.3449e-19, cumulative = -8.72458e-19
DICPCG:  Solving for p_rgh, Initial residual = 0.00181347, Final residual = 9.48644e-08, No Iterations 91
time step continuity errors : sum local = 1.08287e-10, global = -9.08179e-20, cumulative = -9.63276e-19
ExecutionTime = 4 s  ClockTime = 5 s

Courant Number mean: 0.0653778 max: 0.41532
Interface Courant Number mean: 0.00581157 max: 0.412108
deltaT = 0.0025641
Time = 0.102564

PIMPLE: iteration 1
MULES: Solving for alpha.water
Phase-1 volume fraction = 0.25  Min(alpha.water) = 2.52811e-127  Max(alpha.water) = 1
MULES: Solving for alpha.water
Phase-1 volume fraction = 0.25  Min(alpha.water) = 3.51928e-126  Max(alpha.water) = 1
DICPCG:  Solving for p_rgh, Initial residual = 0.0477607, Final residual = 0.00222237, No Iterations 5
time step continuity errors : sum local = 3.10481e-06, global = -2.92229e-20, cumulative = -9.92499e-19
DICPCG:  Solving for p_rgh, Initial residual = 0.0127851, Final residual = 0.000634504, No Iterations 10
time step continuity errors : sum local = 9.12386e-07, global = -5.71647e-20, cumulative = -1.04966e-18
DICPCG:  Solving for p_rgh, Initial residual = 0.00215664, Final residual = 9.30365e-08, No Iterations 88
time step continuity errors : sum local = 1.28127e-10, global = 6.92579e-20, cumulative = -9.80406e-19
ExecutionTime = 4.07 s  ClockTime = 5 s

Courant Number mean: 0.0733333 max: 0.465005
Interface Courant Number mean: 0.0062118 max: 0.459299
deltaT = 0.00270655
Time = 0.105271

PIMPLE: iteration 1
MULES: Solving for alpha.water
Phase-1 volume fraction = 0.25  Min(alpha.water) = 4.50347e-125  Max(alpha.water) = 1
MULES: Solving for alpha.water
Phase-1 volume fraction = 0.25  Min(alpha.water) = 5.18314e-124  Max(alpha.water) = 1
DICPCG:  Solving for p_rgh, Initial residual = 0.0450564, Final residual = 0.00207184, No Iterations 6
time step continuity errors : sum local = 3.17997e-06, global = -3.713e-20, cumulative = -1.01754e-18
DICPCG:  Solving for p_rgh, Initial residual = 0.0132647, Final residual = 0.000499352, No Iterations 10
time step continuity errors : sum local = 7.48556e-07, global = -1.58704e-19, cumulative = -1.17624e-18
DICPCG:  Solving for p_rgh, Initial residual = 0.00216994, Final residual = 9.90185e-08, No Iterations 90
time step continuity errors : sum local = 1.4849e-10, global = -3.65858e-22, cumulative = -1.17661e-18
ExecutionTime = 4.14 s  ClockTime = 6 s

Courant Number mean: 0.0776202 max: 0.490736
Interface Courant Number mean: 0.00692476 max: 0.482083
deltaT = 0.00270655
Time = 0.107977

PIMPLE: iteration 1
MULES: Solving for alpha.water
Phase-1 volume fraction = 0.25  Min(alpha.water) = 5.3692e-123  Max(alpha.water) = 1
MULES: Solving for alpha.water
Phase-1 volume fraction = 0.25  Min(alpha.water) = 5.11266e-122  Max(alpha.water) = 1
DICPCG:  Solving for p_rgh, Initial residual = 0.0425599, Final residual = 0.00144598, No Iterations 7
time step continuity errors : sum local = 2.23673e-06, global = -1.28765e-19, cumulative = -1.30537e-18
DICPCG:  Solving for p_rgh, Initial residual = 0.0126571, Final residual = 0.000463239, No Iterations 10
time step continuity errors : sum local = 7.09782e-07, global = 7.76565e-20, cumulative = -1.22771e-18
DICPCG:  Solving for p_rgh, Initial residual = 0.0020525, Final residual = 9.38766e-08, No Iterations 93
time step continuity errors : sum local = 1.41454e-10, global = 5.03379e-21, cumulative = -1.22268e-18
ExecutionTime = 4.21 s  ClockTime = 6 s

Courant Number mean: 0.0778341 max: 0.490043
Interface Courant Number mean: 0.00713188 max: 0.483283
deltaT = 0.00270655
Time = 0.110684

PIMPLE: iteration 1
MULES: Solving for alpha.water
Phase-1 volume fraction = 0.25  Min(alpha.water) = 6.34546e-112  Max(alpha.water) = 1
MULES: Solving for alpha.water
Phase-1 volume fraction = 0.25  Min(alpha.water) = 4.39924e-111  Max(alpha.water) = 1
DICPCG:  Solving for p_rgh, Initial residual = 0.0426867, Final residual = 0.00151406, No Iterations 7
time step continuity errors : sum local = 2.35714e-06, global = -1.24542e-19, cumulative = -1.34722e-18
DICPCG:  Solving for p_rgh, Initial residual = 0.0121823, Final residual = 0.000467433, No Iterations 10
time step continuity errors : sum local = 7.28653e-07, global = -7.04991e-20, cumulative = -1.41772e-18
DICPCG:  Solving for p_rgh, Initial residual = 0.00198088, Final residual = 7.82713e-08, No Iterations 94
time step continuity errors : sum local = 1.19021e-10, global = 8.6555e-20, cumulative = -1.33117e-18
ExecutionTime = 4.28 s  ClockTime = 6 s

Courant Number mean: 0.0780514 max: 0.488559
Interface Courant Number mean: 0.00735237 max: 0.484934
deltaT = 0.00270655
Time = 0.11339

PIMPLE: iteration 1
MULES: Solving for alpha.water
Phase-1 volume fraction = 0.25  Min(alpha.water) = 3.00332e-110  Max(alpha.water) = 1
MULES: Solving for alpha.water
Phase-1 volume fraction = 0.25  Min(alpha.water) = 1.91923e-109  Max(alpha.water) = 1
DICPCG:  Solving for p_rgh, Initial residual = 0.0450033, Final residual = 0.00155259, No Iterations 7
time step continuity errors : sum local = 2.4254e-06, global = 1.19002e-19, cumulative = -1.21216e-18
DICPCG:  Solving for p_rgh, Initial residual = 0.0120393, Final residual = 0.000510544, No Iterations 10
time step continuity errors : sum local = 8.03104e-07, global = 6.80142e-20, cumulative = -1.14415e-18
DICPCG:  Solving for p_rgh, Initial residual = 0.0019973, Final residual = 7.72675e-08, No Iterations 83
time step continuity errors : sum local = 1.16566e-10, global = -9.0781e-20, cumulative = -1.23493e-18
ExecutionTime = 4.35 s  ClockTime = 6 s

Courant Number mean: 0.0782763 max: 0.486315
Interface Courant Number mean: 0.00739708 max: 0.486077
deltaT = 0.00270655
Time = 0.116097

PIMPLE: iteration 1
MULES: Solving for alpha.water
Phase-1 volume fraction = 0.25  Min(alpha.water) = 1.20771e-108  Max(alpha.water) = 1
MULES: Solving for alpha.water
Phase-1 volume fraction = 0.25  Min(alpha.water) = 7.14384e-108  Max(alpha.water) = 1
DICPCG:  Solving for p_rgh, Initial residual = 0.0446191, Final residual = 0.00148644, No Iterations 7
time step continuity errors : sum local = 2.2908e-06, global = 1.66047e-20, cumulative = -1.21833e-18
DICPCG:  Solving for p_rgh, Initial residual = 0.0122049, Final residual = 0.00046181, No Iterations 10
time step continuity errors : sum local = 7.08575e-07, global = -2.39758e-20, cumulative = -1.2423e-18
DICPCG:  Solving for p_rgh, Initial residual = 0.00195886, Final residual = 7.49188e-08, No Iterations 94
time step continuity errors : sum local = 1.12226e-10, global = -5.14763e-20, cumulative = -1.29378e-18
ExecutionTime = 4.42 s  ClockTime = 6 s

Courant Number mean: 0.0785028 max: 0.486448
Interface Courant Number mean: 0.0071872 max: 0.486448
deltaT = 0.00270655
Time = 0.118803

PIMPLE: iteration 1
MULES: Solving for alpha.water
Phase-1 volume fraction = 0.25  Min(alpha.water) = 4.16738e-107  Max(alpha.water) = 1
MULES: Solving for alpha.water
Phase-1 volume fraction = 0.25  Min(alpha.water) = 2.29761e-106  Max(alpha.water) = 1
DICPCG:  Solving for p_rgh, Initial residual = 0.0456456, Final residual = 0.00202741, No Iterations 6
time step continuity errors : sum local = 3.0662e-06, global = -6.81012e-21, cumulative = -1.30059e-18
DICPCG:  Solving for p_rgh, Initial residual = 0.012178, Final residual = 0.000431244, No Iterations 10
time step continuity errors : sum local = 6.48471e-07, global = -2.23043e-20, cumulative = -1.32289e-18
DICPCG:  Solving for p_rgh, Initial residual = 0.00191677, Final residual = 9.60063e-08, No Iterations 93
time step continuity errors : sum local = 1.42684e-10, global = 1.4853e-19, cumulative = -1.17436e-18
ExecutionTime = 4.49 s  ClockTime = 6 s

Courant Number mean: 0.07872 max: 0.485793
Interface Courant Number mean: 0.0068662 max: 0.485793
deltaT = 0.00270655
Time = 0.12151

PIMPLE: iteration 1
MULES: Solving for alpha.water
Phase-1 volume fraction = 0.25  Min(alpha.water) = 1.25355e-105  Max(alpha.water) = 1
MULES: Solving for alpha.water
Phase-1 volume fraction = 0.25  Min(alpha.water) = 6.53536e-105  Max(alpha.water) = 1
DICPCG:  Solving for p_rgh, Initial residual = 0.0484621, Final residual = 0.00242281, No Iterations 4
time step continuity errors : sum local = 3.61679e-06, global = 5.59484e-20, cumulative = -1.11841e-18
DICPCG:  Solving for p_rgh, Initial residual = 0.0115846, Final residual = 0.000417962, No Iterations 10
time step continuity errors : sum local = 6.31291e-07, global = 1.82335e-20, cumulative = -1.10018e-18
DICPCG:  Solving for p_rgh, Initial residual = 0.00190947, Final residual = 9.96559e-08, No Iterations 89
time step continuity errors : sum local = 1.48393e-10, global = 5.5979e-20, cumulative = -1.0442e-18
ExecutionTime = 4.56 s  ClockTime = 6 s

Courant Number mean: 0.0789406 max: 0.485362
Interface Courant Number mean: 0.00718928 max: 0.484332
deltaT = 0.00270655
Time = 0.124217

PIMPLE: iteration 1
MULES: Solving for alpha.water
Phase-1 volume fraction = 0.25  Min(alpha.water) = 3.39617e-104  Max(alpha.water) = 1
MULES: Solving for alpha.water
Phase-1 volume fraction = 0.25  Min(alpha.water) = 1.69257e-103  Max(alpha.water) = 1
DICPCG:  Solving for p_rgh, Initial residual = 0.0443128, Final residual = 0.0019912, No Iterations 6
time step continuity errors : sum local = 3.02323e-06, global = -1.0943e-19, cumulative = -1.15363e-18
DICPCG:  Solving for p_rgh, Initial residual = 0.0115735, Final residual = 0.000428179, No Iterations 10
time step continuity errors : sum local = 6.48236e-07, global = -3.27155e-20, cumulative = -1.18635e-18
DICPCG:  Solving for p_rgh, Initial residual = 0.00177379, Final residual = 9.86158e-08, No Iterations 92
time step continuity errors : sum local = 1.48693e-10, global = -5.90071e-20, cumulative = -1.24536e-18
ExecutionTime = 4.63 s  ClockTime = 6 s

Courant Number mean: 0.0791613 max: 0.485612
Interface Courant Number mean: 0.0074155 max: 0.482378
deltaT = 0.00270655
Time = 0.126923

PIMPLE: iteration 1
MULES: Solving for alpha.water
Phase-1 volume fraction = 0.25  Min(alpha.water) = 8.38465e-103  Max(alpha.water) = 1
MULES: Solving for alpha.water
Phase-1 volume fraction = 0.25  Min(alpha.water) = 3.97324e-102  Max(alpha.water) = 1
DICPCG:  Solving for p_rgh, Initial residual = 0.0415216, Final residual = 0.00134861, No Iterations 7
time step continuity errors : sum local = 2.1041e-06, global = 1.15284e-19, cumulative = -1.13007e-18
DICPCG:  Solving for p_rgh, Initial residual = 0.0111052, Final residual = 0.000480619, No Iterations 10
time step continuity errors : sum local = 7.5287e-07, global = -6.87366e-20, cumulative = -1.19881e-18
DICPCG:  Solving for p_rgh, Initial residual = 0.00180785, Final residual = 9.67194e-08, No Iterations 93
time step continuity errors : sum local = 1.48202e-10, global = 4.1211e-20, cumulative = -1.1576e-18
ExecutionTime = 4.7 s  ClockTime = 6 s

Courant Number mean: 0.0793829 max: 0.485196
Interface Courant Number mean: 0.0075706 max: 0.480432
deltaT = 0.00270655
Time = 0.12963

PIMPLE: iteration 1
MULES: Solving for alpha.water
Phase-1 volume fraction = 0.25  Min(alpha.water) = 1.86367e-101  Max(alpha.water) = 1
MULES: Solving for alpha.water
Phase-1 volume fraction = 0.25  Min(alpha.water) = 8.35961e-101  Max(alpha.water) = 1
DICPCG:  Solving for p_rgh, Initial residual = 0.0413827, Final residual = 0.00133146, No Iterations 7
time step continuity errors : sum local = 2.11165e-06, global = 4.44972e-20, cumulative = -1.1131e-18
DICPCG:  Solving for p_rgh, Initial residual = 0.0108636, Final residual = 0.00049687, No Iterations 10
time step continuity errors : sum local = 7.99426e-07, global = 1.18614e-19, cumulative = -9.94485e-19
DICPCG:  Solving for p_rgh, Initial residual = 0.0017826, Final residual = 9.51729e-08, No Iterations 93
time step continuity errors : sum local = 1.47447e-10, global = -5.63681e-20, cumulative = -1.05085e-18
ExecutionTime = 4.77 s  ClockTime = 6 s

Courant Number mean: 0.0796039 max: 0.48415
Interface Courant Number mean: 0.00755387 max: 0.482339
deltaT = 0.00270655
Time = 0.132336

PIMPLE: iteration 1
MULES: Solving for alpha.water
Phase-1 volume fraction = 0.25  Min(alpha.water) = 3.7068e-100  Max(alpha.water) = 1
MULES: Solving for alpha.water
Phase-1 volume fraction = 0.25  Min(alpha.water) = 1.57536e-99  Max(alpha.water) = 1
DICPCG:  Solving for p_rgh, Initial residual = 0.0414281, Final residual = 0.00136715, No Iterations 7
time step continuity errors : sum local = 2.17883e-06, global = -4.56449e-20, cumulative = -1.0965e-18
DICPCG:  Solving for p_rgh, Initial residual = 0.0107349, Final residual = 0.000533008, No Iterations 10
time step continuity errors : sum local = 8.51678e-07, global = 1.56986e-20, cumulative = -1.0808e-18
DICPCG:  Solving for p_rgh, Initial residual = 0.0017927, Final residual = 8.86026e-08, No Iterations 93
time step continuity errors : sum local = 1.38664e-10, global = -1.89288e-19, cumulative = -1.27009e-18
ExecutionTime = 4.85 s  ClockTime = 6 s

Courant Number mean: 0.0798269 max: 0.483648
Interface Courant Number mean: 0.00746098 max: 0.483648
deltaT = 0.00270655
Time = 0.135043

PIMPLE: iteration 1
MULES: Solving for alpha.water
Phase-1 volume fraction = 0.25  Min(alpha.water) = 6.61816e-99  Max(alpha.water) = 1
MULES: Solving for alpha.water
Phase-1 volume fraction = 0.25  Min(alpha.water) = 2.67298e-98  Max(alpha.water) = 1
DICPCG:  Solving for p_rgh, Initial residual = 0.0391063, Final residual = 0.00133333, No Iterations 7
time step continuity errors : sum local = 2.12909e-06, global = -1.3426e-19, cumulative = -1.40435e-18
DICPCG:  Solving for p_rgh, Initial residual = 0.0104913, Final residual = 0.000387032, No Iterations 10
time step continuity errors : sum local = 6.0788e-07, global = -3.53378e-20, cumulative = -1.43969e-18
DICPCG:  Solving for p_rgh, Initial residual = 0.00165965, Final residual = 8.96853e-08, No Iterations 93
time step continuity errors : sum local = 1.41121e-10, global = 6.5534e-20, cumulative = -1.37415e-18
ExecutionTime = 4.92 s  ClockTime = 6 s

Courant Number mean: 0.0800447 max: 0.484257
Interface Courant Number mean: 0.00755934 max: 0.484257
deltaT = 0.00270655
Time = 0.137749

PIMPLE: iteration 1
MULES: Solving for alpha.water
Phase-1 volume fraction = 0.25  Min(alpha.water) = 1.06757e-97  Max(alpha.water) = 1
MULES: Solving for alpha.water
Phase-1 volume fraction = 0.25  Min(alpha.water) = 4.11062e-97  Max(alpha.water) = 1
DICPCG:  Solving for p_rgh, Initial residual = 0.0442364, Final residual = 0.00216443, No Iterations 5
time step continuity errors : sum local = 3.44144e-06, global = 1.68183e-20, cumulative = -1.35733e-18
DICPCG:  Solving for p_rgh, Initial residual = 0.0104341, Final residual = 0.000500468, No Iterations 10
time step continuity errors : sum local = 8.29175e-07, global = 7.25364e-20, cumulative = -1.2848e-18
DICPCG:  Solving for p_rgh, Initial residual = 0.00173596, Final residual = 9.21738e-08, No Iterations 90
time step continuity errors : sum local = 1.46502e-10, global = -8.03457e-20, cumulative = -1.36514e-18
ExecutionTime = 4.99 s  ClockTime = 6 s

Courant Number mean: 0.0802539 max: 0.484234
Interface Courant Number mean: 0.00769815 max: 0.484234
deltaT = 0.00270655
Time = 0.140456

PIMPLE: iteration 1
MULES: Solving for alpha.water
Phase-1 volume fraction = 0.25  Min(alpha.water) = 1.56363e-96  Max(alpha.water) = 1
MULES: Solving for alpha.water
Phase-1 volume fraction = 0.25  Min(alpha.water) = 5.74816e-96  Max(alpha.water) = 1
DICPCG:  Solving for p_rgh, Initial residual = 0.0419091, Final residual = 0.00198724, No Iterations 5
time step continuity errors : sum local = 3.21614e-06, global = -9.21293e-20, cumulative = -1.45727e-18
DICPCG:  Solving for p_rgh, Initial residual = 0.0100351, Final residual = 0.000460958, No Iterations 10
time step continuity errors : sum local = 7.68133e-07, global = -1.68777e-20, cumulative = -1.47415e-18
DICPCG:  Solving for p_rgh, Initial residual = 0.00162111, Final residual = 9.35433e-08, No Iterations 92
time step continuity errors : sum local = 1.51194e-10, global = 6.15105e-20, cumulative = -1.41264e-18
ExecutionTime = 5.06 s  ClockTime = 6 s

Courant Number mean: 0.0804678 max: 0.483924
Interface Courant Number mean: 0.00762838 max: 0.483924
deltaT = 0.00270655
Time = 0.143162

PIMPLE: iteration 1
MULES: Solving for alpha.water
Phase-1 volume fraction = 0.25  Min(alpha.water) = 2.08839e-95  Max(alpha.water) = 1
MULES: Solving for alpha.water
Phase-1 volume fraction = 0.25  Min(alpha.water) = 7.34778e-95  Max(alpha.water) = 1
DICPCG:  Solving for p_rgh, Initial residual = 0.0360219, Final residual = 0.00123839, No Iterations 7
time step continuity errors : sum local = 2.07199e-06, global = -8.92173e-21, cumulative = -1.42156e-18
DICPCG:  Solving for p_rgh, Initial residual = 0.00966949, Final residual = 0.000449596, No Iterations 10
time step continuity errors : sum local = 7.67224e-07, global = -6.23852e-20, cumulative = -1.48395e-18
DICPCG:  Solving for p_rgh, Initial residual = 0.00159767, Final residual = 9.11546e-08, No Iterations 93
time step continuity errors : sum local = 1.49662e-10, global = 3.1981e-20, cumulative = -1.45197e-18
ExecutionTime = 5.13 s  ClockTime = 7 s

Courant Number mean: 0.0806902 max: 0.482835
Interface Courant Number mean: 0.00788483 max: 0.482835
deltaT = 0.00270655
Time = 0.145869

PIMPLE: iteration 1
MULES: Solving for alpha.water
Phase-1 volume fraction = 0.25  Min(alpha.water) = 2.55779e-94  Max(alpha.water) = 1
MULES: Solving for alpha.water
Phase-1 volume fraction = 0.25  Min(alpha.water) = 8.63846e-94  Max(alpha.water) = 1
DICPCG:  Solving for p_rgh, Initial residual = 0.0354292, Final residual = 0.00117562, No Iterations 7
time step continuity errors : sum local = 1.97139e-06, global = -3.19429e-21, cumulative = -1.45516e-18
DICPCG:  Solving for p_rgh, Initial residual = 0.00942355, Final residual = 0.000423989, No Iterations 10
time step continuity errors : sum local = 7.17871e-07, global = -1.44597e-20, cumulative = -1.46962e-18
DICPCG:  Solving for p_rgh, Initial residual = 0.00153608, Final residual = 7.70206e-08, No Iterations 93
time step continuity errors : sum local = 1.27264e-10, global = 2.75136e-21, cumulative = -1.46687e-18
ExecutionTime = 5.2 s  ClockTime = 7 s

Courant Number mean: 0.0809068 max: 0.480707
Interface Courant Number mean: 0.00776343 max: 0.480707
deltaT = 0.00270655
Time = 0.148575

PIMPLE: iteration 1
MULES: Solving for alpha.water
Phase-1 volume fraction = 0.25  Min(alpha.water) = 2.88554e-93  Max(alpha.water) = 1
MULES: Solving for alpha.water
Phase-1 volume fraction = 0.25  Min(alpha.water) = 9.36775e-93  Max(alpha.water) = 1
DICPCG:  Solving for p_rgh, Initial residual = 0.0400075, Final residual = 0.00191046, No Iterations 6
time step continuity errors : sum local = 3.17653e-06, global = -4.91958e-20, cumulative = -1.51606e-18
DICPCG:  Solving for p_rgh, Initial residual = 0.00990282, Final residual = 0.000421379, No Iterations 10
time step continuity errors : sum local = 7.05842e-07, global = 2.54651e-20, cumulative = -1.4906e-18
DICPCG:  Solving for p_rgh, Initial residual = 0.00151106, Final residual = 9.4584e-08, No Iterations 91
time step continuity errors : sum local = 1.56053e-10, global = -2.00849e-19, cumulative = -1.69145e-18
ExecutionTime = 5.27 s  ClockTime = 7 s

Courant Number mean: 0.0811243 max: 0.477437
Interface Courant Number mean: 0.00810885 max: 0.477421
deltaT = 0.00270655
Time = 0.151282

PIMPLE: iteration 1
MULES: Solving for alpha.water
Phase-1 volume fraction = 0.25  Min(alpha.water) = 3.00804e-92  Max(alpha.water) = 1
MULES: Solving for alpha.water
Phase-1 volume fraction = 0.25  Min(alpha.water) = 9.40301e-92  Max(alpha.water) = 1
DICPCG:  Solving for p_rgh, Initial residual = 0.0417107, Final residual = 0.00196217, No Iterations 4
time step continuity errors : sum local = 3.22385e-06, global = 6.24577e-20, cumulative = -1.62899e-18
DICPCG:  Solving for p_rgh, Initial residual = 0.0093606, Final residual = 0.000390639, No Iterations 10
time step continuity errors : sum local = 6.48695e-07, global = 5.46558e-20, cumulative = -1.57433e-18
DICPCG:  Solving for p_rgh, Initial residual = 0.00156609, Final residual = 8.55586e-08, No Iterations 93
time step continuity errors : sum local = 1.39624e-10, global = 2.52646e-20, cumulative = -1.54907e-18
ExecutionTime = 5.34 s  ClockTime = 7 s

Courant Number mean: 0.0813352 max: 0.477411
Interface Courant Number mean: 0.00826387 max: 0.477411
deltaT = 0.00270655
Time = 0.153989

PIMPLE: iteration 1
MULES: Solving for alpha.water
Phase-1 volume fraction = 0.25  Min(alpha.water) = 2.90817e-91  Max(alpha.water) = 1
MULES: Solving for alpha.water
Phase-1 volume fraction = 0.25  Min(alpha.water) = 8.76952e-91  Max(alpha.water) = 1
DICPCG:  Solving for p_rgh, Initial residual = 0.0412791, Final residual = 0.00188708, No Iterations 4
time step continuity errors : sum local = 3.10695e-06, global = 4.34981e-20, cumulative = -1.50557e-18
DICPCG:  Solving for p_rgh, Initial residual = 0.00917674, Final residual = 0.000362103, No Iterations 10
time step continuity errors : sum local = 6.05746e-07, global = 3.45763e-20, cumulative = -1.471e-18
DICPCG:  Solving for p_rgh, Initial residual = 0.00152101, Final residual = 8.78527e-08, No Iterations 93
time step continuity errors : sum local = 1.45113e-10, global = 1.42203e-19, cumulative = -1.32879e-18
ExecutionTime = 5.42 s  ClockTime = 7 s

Courant Number mean: 0.0815341 max: 0.476942
Interface Courant Number mean: 0.00832556 max: 0.476942
deltaT = 0.00270655
Time = 0.156695

PIMPLE: iteration 1
MULES: Solving for alpha.water
Phase-1 volume fraction = 0.25  Min(alpha.water) = 2.62112e-90  Max(alpha.water) = 1
MULES: Solving for alpha.water
Phase-1 volume fraction = 0.25  Min(alpha.water) = 7.66601e-90  Max(alpha.water) = 1
DICPCG:  Solving for p_rgh, Initial residual = 0.0408642, Final residual = 0.00176135, No Iterations 5
time step continuity errors : sum local = 2.95419e-06, global = 5.50941e-20, cumulative = -1.2737e-18
DICPCG:  Solving for p_rgh, Initial residual = 0.00912649, Final residual = 0.000353868, No Iterations 10
time step continuity errors : sum local = 6.12311e-07, global = -8.72793e-20, cumulative = -1.36098e-18
DICPCG:  Solving for p_rgh, Initial residual = 0.00145563, Final residual = 8.4693e-08, No Iterations 90
time step continuity errors : sum local = 1.43596e-10, global = 4.57498e-20, cumulative = -1.31523e-18
ExecutionTime = 5.49 s  ClockTime = 7 s

Courant Number mean: 0.081735 max: 0.47592
Interface Courant Number mean: 0.00853005 max: 0.47592
deltaT = 0.00270655
Time = 0.159402

PIMPLE: iteration 1
MULES: Solving for alpha.water
Phase-1 volume fraction = 0.25  Min(alpha.water) = 2.22801e-89  Max(alpha.water) = 1
MULES: Solving for alpha.water
Phase-1 volume fraction = 0.25  Min(alpha.water) = 6.35852e-89  Max(alpha.water) = 1
DICPCG:  Solving for p_rgh, Initial residual = 0.0401756, Final residual = 0.00184279, No Iterations 5
time step continuity errors : sum local = 3.12171e-06, global = 1.03428e-19, cumulative = -1.2118e-18
DICPCG:  Solving for p_rgh, Initial residual = 0.00918321, Final residual = 0.000323756, No Iterations 10
time step continuity errors : sum local = 5.625e-07, global = 4.78623e-20, cumulative = -1.16394e-18
DICPCG:  Solving for p_rgh, Initial residual = 0.00142364, Final residual = 6.81486e-08, No Iterations 88
time step continuity errors : sum local = 1.15303e-10, global = -2.33815e-21, cumulative = -1.16628e-18
ExecutionTime = 5.56 s  ClockTime = 7 s

Courant Number mean: 0.0819358 max: 0.4744
Interface Courant Number mean: 0.00851737 max: 0.4744
deltaT = 0.00270655
Time = 0.162108

PIMPLE: iteration 1
MULES: Solving for alpha.water
Phase-1 volume fraction = 0.25  Min(alpha.water) = 1.80464e-88  Max(alpha.water) = 1
MULES: Solving for alpha.water
Phase-1 volume fraction = 0.25  Min(alpha.water) = 5.0332e-88  Max(alpha.water) = 1
DICPCG:  Solving for p_rgh, Initial residual = 0.03955, Final residual = 0.00185724, No Iterations 5
time step continuity errors : sum local = 3.17863e-06, global = 1.59751e-19, cumulative = -1.00652e-18
DICPCG:  Solving for p_rgh, Initial residual = 0.00925937, Final residual = 0.000366771, No Iterations 10
time step continuity errors : sum local = 6.38292e-07, global = 8.14163e-20, cumulative = -9.25108e-19
DICPCG:  Solving for p_rgh, Initial residual = 0.00142631, Final residual = 8.85543e-08, No Iterations 90
time step continuity errors : sum local = 1.50294e-10, global = 1.02473e-19, cumulative = -8.22635e-19
ExecutionTime = 5.63 s  ClockTime = 7 s

Courant Number mean: 0.0821254 max: 0.47244
Interface Courant Number mean: 0.00808989 max: 0.47244
deltaT = 0.00270655
Time = 0.164815

PIMPLE: iteration 1
MULES: Solving for alpha.water
Phase-1 volume fraction = 0.25  Min(alpha.water) = 1.39413e-87  Max(alpha.water) = 1
MULES: Solving for alpha.water
Phase-1 volume fraction = 0.25  Min(alpha.water) = 3.7916e-87  Max(alpha.water) = 1
DICPCG:  Solving for p_rgh, Initial residual = 0.0406876, Final residual = 0.00175644, No Iterations 4
time step continuity errors : sum local = 2.98688e-06, global = 8.64501e-20, cumulative = -7.36185e-19
DICPCG:  Solving for p_rgh, Initial residual = 0.00873816, Final residual = 0.000364364, No Iterations 11
time step continuity errors : sum local = 6.30331e-07, global = -5.92262e-20, cumulative = -7.95411e-19
DICPCG:  Solving for p_rgh, Initial residual = 0.00144301, Final residual = 9.21991e-08, No Iterations 91
time step continuity errors : sum local = 1.56498e-10, global = 3.35763e-20, cumulative = -7.61835e-19
ExecutionTime = 5.7 s  ClockTime = 7 s

Courant Number mean: 0.0823131 max: 0.469524
Interface Courant Number mean: 0.00830023 max: 0.469524
deltaT = 0.00270655
Time = 0.167521

PIMPLE: iteration 1
MULES: Solving for alpha.water
Phase-1 volume fraction = 0.25  Min(alpha.water) = 1.02128e-86  Max(alpha.water) = 1
MULES: Solving for alpha.water
Phase-1 volume fraction = 0.25  Min(alpha.water) = 2.69976e-86  Max(alpha.water) = 1
DICPCG:  Solving for p_rgh, Initial residual = 0.0415962, Final residual = 0.00202615, No Iterations 5
time step continuity errors : sum local = 3.48892e-06, global = 1.79634e-19, cumulative = -5.82201e-19
DICPCG:  Solving for p_rgh, Initial residual = 0.0089817, Final residual = 0.000417583, No Iterations 10
time step continuity errors : sum local = 7.42509e-07, global = -5.82085e-20, cumulative = -6.4041e-19
DICPCG:  Solving for p_rgh, Initial residual = 0.00140053, Final residual = 8.03395e-08, No Iterations 92
time step continuity errors : sum local = 1.37195e-10, global = 4.87788e-20, cumulative = -5.91631e-19
ExecutionTime = 5.77 s  ClockTime = 7 s

Courant Number mean: 0.0825036 max: 0.468101
Interface Courant Number mean: 0.00845901 max: 0.465277
deltaT = 0.00270655
Time = 0.170228

PIMPLE: iteration 1
MULES: Solving for alpha.water
Phase-1 volume fraction = 0.25  Min(alpha.water) = 7.05652e-86  Max(alpha.water) = 1
MULES: Solving for alpha.water
Phase-1 volume fraction = 0.25  Min(alpha.water) = 1.81073e-85  Max(alpha.water) = 1
DICPCG:  Solving for p_rgh, Initial residual = 0.036523, Final residual = 0.0015687, No Iterations 5
time step continuity errors : sum local = 2.70055e-06, global = 3.20125e-20, cumulative = -5.59618e-19
DICPCG:  Solving for p_rgh, Initial residual = 0.00858161, Final residual = 0.000327507, No Iterations 10
time step continuity errors : sum local = 5.66336e-07, global = -3.64186e-21, cumulative = -5.6326e-19
DICPCG:  Solving for p_rgh, Initial residual = 0.00129501, Final residual = 7.66107e-08, No Iterations 87
time step continuity errors : sum local = 1.32417e-10, global = -2.67057e-20, cumulative = -5.89966e-19
ExecutionTime = 5.84 s  ClockTime = 7 s

Courant Number mean: 0.0826959 max: 0.467693
Interface Courant Number mean: 0.00862482 max: 0.461448
deltaT = 0.00270655
Time = 0.172934

PIMPLE: iteration 1
MULES: Solving for alpha.water
Phase-1 volume fraction = 0.25  Min(alpha.water) = 4.593e-85  Max(alpha.water) = 1
MULES: Solving for alpha.water
Phase-1 volume fraction = 0.25  Min(alpha.water) = 1.1448e-84  Max(alpha.water) = 1
DICPCG:  Solving for p_rgh, Initial residual = 0.03438, Final residual = 0.00142191, No Iterations 6
time step continuity errors : sum local = 2.49707e-06, global = -4.43737e-20, cumulative = -6.34339e-19
DICPCG:  Solving for p_rgh, Initial residual = 0.00859271, Final residual = 0.000302443, No Iterations 10
time step continuity errors : sum local = 5.48663e-07, global = -3.68411e-20, cumulative = -6.71181e-19
DICPCG:  Solving for p_rgh, Initial residual = 0.00128295, Final residual = 8.31868e-08, No Iterations 92
time step continuity errors : sum local = 1.42669e-10, global = -3.42996e-20, cumulative = -7.0548e-19
ExecutionTime = 5.91 s  ClockTime = 7 s

Courant Number mean: 0.0828852 max: 0.466807
Interface Courant Number mean: 0.00876283 max: 0.460401
deltaT = 0.00270655
Time = 0.175641

PIMPLE: iteration 1
MULES: Solving for alpha.water
Phase-1 volume fraction = 0.25  Min(alpha.water) = 2.8214e-84  Max(alpha.water) = 1
MULES: Solving for alpha.water
Phase-1 volume fraction = 0.25  Min(alpha.water) = 6.84092e-84  Max(alpha.water) = 1
DICPCG:  Solving for p_rgh, Initial residual = 0.0370369, Final residual = 0.00165993, No Iterations 5
time step continuity errors : sum local = 2.85063e-06, global = 5.60394e-21, cumulative = -6.99876e-19
DICPCG:  Solving for p_rgh, Initial residual = 0.00853108, Final residual = 0.000381023, No Iterations 10
time step continuity errors : sum local = 6.55119e-07, global = -4.36095e-20, cumulative = -7.43486e-19
DICPCG:  Solving for p_rgh, Initial residual = 0.00129627, Final residual = 8.8008e-08, No Iterations 92
time step continuity errors : sum local = 1.50231e-10, global = -7.45607e-20, cumulative = -8.18046e-19
ExecutionTime = 5.98 s  ClockTime = 7 s

Courant Number mean: 0.0830738 max: 0.465465
Interface Courant Number mean: 0.00887541 max: 0.460559
deltaT = 0.00270655
Time = 0.178348

PIMPLE: iteration 1
MULES: Solving for alpha.water
Phase-1 volume fraction = 0.25  Min(alpha.water) = 1.64097e-83  Max(alpha.water) = 1
MULES: Solving for alpha.water
Phase-1 volume fraction = 0.25  Min(alpha.water) = 3.87709e-83  Max(alpha.water) = 1
DICPCG:  Solving for p_rgh, Initial residual = 0.0380998, Final residual = 0.001821, No Iterations 5
time step continuity errors : sum local = 3.14203e-06, global = -6.21104e-20, cumulative = -8.80157e-19
DICPCG:  Solving for p_rgh, Initial residual = 0.00868591, Final residual = 0.000413428, No Iterations 10
time step continuity errors : sum local = 7.42e-07, global = 8.08564e-20, cumulative = -7.993e-19
DICPCG:  Solving for p_rgh, Initial residual = 0.00133592, Final residual = 9.01996e-08, No Iterations 92
time step continuity errors : sum local = 1.53329e-10, global = -9.87871e-20, cumulative = -8.98087e-19
ExecutionTime = 6.06 s  ClockTime = 7 s

Courant Number mean: 0.0832541 max: 0.463636
[...]
Interface Courant Number mean: 0.0327647 max: 0.479764
deltaT = 0.00531945
Time = 1.9

PIMPLE: iteration 1
MULES: Solving for alpha.water
Phase-1 volume fraction = 0.25  Min(alpha.water) = 5.19132e-28  Max(alpha.water) = 1
MULES: Solving for alpha.water
Phase-1 volume fraction = 0.25  Min(alpha.water) = 5.37024e-28  Max(alpha.water) = 1
DICPCG:  Solving for p_rgh, Initial residual = 0.103543, Final residual = 0.00366064, No Iterations 2
time step continuity errors : sum local = 4.07344e-05, global = -1.54506e-20, cumulative = -2.46671e-18
DICPCG:  Solving for p_rgh, Initial residual = 0.00762903, Final residual = 0.000359022, No Iterations 26
time step continuity errors : sum local = 4.35082e-06, global = 7.31301e-20, cumulative = -2.39358e-18
DICPCG:  Solving for p_rgh, Initial residual = 0.0014623, Final residual = 7.59132e-08, No Iterations 95
time step continuity errors : sum local = 8.47252e-10, global = 4.19999e-20, cumulative = -2.35158e-18
ExecutionTime = 41.86 s  ClockTime = 49 s

Courant Number mean: 0.0794855 max: 0.477733
Interface Courant Number mean: 0.032486 max: 0.477733
deltaT = 0.00555556
Time = 1.90556

PIMPLE: iteration 1
MULES: Solving for alpha.water
Phase-1 volume fraction = 0.25  Min(alpha.water) = 5.565e-28  Max(alpha.water) = 1
MULES: Solving for alpha.water
Phase-1 volume fraction = 0.25  Min(alpha.water) = 5.76557e-28  Max(alpha.water) = 1
DICPCG:  Solving for p_rgh, Initial residual = 0.122797, Final residual = 0.00432461, No Iterations 2
time step continuity errors : sum local = 5.09714e-05, global = 1.29342e-20, cumulative = -2.33865e-18
DICPCG:  Solving for p_rgh, Initial residual = 0.00831618, Final residual = 0.000409215, No Iterations 20
time step continuity errors : sum local = 4.81291e-06, global = -1.93922e-19, cumulative = -2.53257e-18
DICPCG:  Solving for p_rgh, Initial residual = 0.00160426, Final residual = 6.85022e-08, No Iterations 95
time step continuity errors : sum local = 7.90072e-10, global = -9.03486e-20, cumulative = -2.62292e-18
ExecutionTime = 41.93 s  ClockTime = 49 s

Courant Number mean: 0.0829925 max: 0.496324
Interface Courant Number mean: 0.0342159 max: 0.496324
deltaT = 0.00555556
Time = 1.91111

PIMPLE: iteration 1
MULES: Solving for alpha.water
Phase-1 volume fraction = 0.25  Min(alpha.water) = 5.97186e-28  Max(alpha.water) = 1
MULES: Solving for alpha.water
Phase-1 volume fraction = 0.25  Min(alpha.water) = 6.18425e-28  Max(alpha.water) = 1
DICPCG:  Solving for p_rgh, Initial residual = 0.157618, Final residual = 0.00526382, No Iterations 2
time step continuity errors : sum local = 6.06192e-05, global = 3.74342e-21, cumulative = -2.61917e-18
DICPCG:  Solving for p_rgh, Initial residual = 0.00940092, Final residual = 0.000421231, No Iterations 15
time step continuity errors : sum local = 4.93283e-06, global = 1.03421e-19, cumulative = -2.51575e-18
DICPCG:  Solving for p_rgh, Initial residual = 0.0017399, Final residual = 6.91974e-08, No Iterations 95
time step continuity errors : sum local = 7.99148e-10, global = -1.30156e-20, cumulative = -2.52877e-18
ExecutionTime = 42 s  ClockTime = 49 s

Courant Number mean: 0.0828722 max: 0.493223
Interface Courant Number mean: 0.034118 max: 0.493223
deltaT = 0.00555556
Time = 1.91667

PIMPLE: iteration 1
MULES: Solving for alpha.water
Phase-1 volume fraction = 0.25  Min(alpha.water) = 6.39992e-28  Max(alpha.water) = 1
MULES: Solving for alpha.water
Phase-1 volume fraction = 0.25  Min(alpha.water) = 6.62183e-28  Max(alpha.water) = 1
DICPCG:  Solving for p_rgh, Initial residual = 0.133238, Final residual = 0.00480267, No Iterations 2
time step continuity errors : sum local = 5.59001e-05, global = -9.88842e-21, cumulative = -2.53866e-18
DICPCG:  Solving for p_rgh, Initial residual = 0.00867757, Final residual = 0.00036371, No Iterations 26
time step continuity errors : sum local = 4.32466e-06, global = -6.35401e-21, cumulative = -2.54501e-18
DICPCG:  Solving for p_rgh, Initial residual = 0.00164065, Final residual = 8.66133e-08, No Iterations 94
time step continuity errors : sum local = 1.01762e-09, global = 1.54611e-19, cumulative = -2.3904e-18
ExecutionTime = 42.08 s  ClockTime = 49 s

Courant Number mean: 0.0828202 max: 0.489794
Interface Courant Number mean: 0.0342064 max: 0.489794
deltaT = 0.00555556
Time = 1.92222

PIMPLE: iteration 1
MULES: Solving for alpha.water
Phase-1 volume fraction = 0.25  Min(alpha.water) = 6.84912e-28  Max(alpha.water) = 1
MULES: Solving for alpha.water
Phase-1 volume fraction = 0.25  Min(alpha.water) = 7.0829e-28  Max(alpha.water) = 1
DICPCG:  Solving for p_rgh, Initial residual = 0.119857, Final residual = 0.00397442, No Iterations 2
time step continuity errors : sum local = 4.65637e-05, global = -3.13921e-20, cumulative = -2.42179e-18
DICPCG:  Solving for p_rgh, Initial residual = 0.00804286, Final residual = 0.00038766, No Iterations 24
time step continuity errors : sum local = 4.62141e-06, global = 1.51267e-19, cumulative = -2.27053e-18
DICPCG:  Solving for p_rgh, Initial residual = 0.00154843, Final residual = 8.26001e-08, No Iterations 94
time step continuity errors : sum local = 9.64254e-10, global = -8.37923e-20, cumulative = -2.35432e-18
ExecutionTime = 42.15 s  ClockTime = 49 s

Courant Number mean: 0.0828569 max: 0.487383
Interface Courant Number mean: 0.0338741 max: 0.487383
deltaT = 0.00555556
Time = 1.92778

PIMPLE: iteration 1
MULES: Solving for alpha.water
Phase-1 volume fraction = 0.25  Min(alpha.water) = -6.88806e-10  Max(alpha.water) = 1
MULES: Solving for alpha.water
Phase-1 volume fraction = 0.25  Min(alpha.water) = 7.57565e-28  Max(alpha.water) = 1
DICPCG:  Solving for p_rgh, Initial residual = 0.130211, Final residual = 0.00362295, No Iterations 2
time step continuity errors : sum local = 4.25403e-05, global = -9.73498e-20, cumulative = -2.45167e-18
DICPCG:  Solving for p_rgh, Initial residual = 0.00737613, Final residual = 0.000366479, No Iterations 16
time step continuity errors : sum local = 4.41023e-06, global = 8.29803e-20, cumulative = -2.36869e-18
DICPCG:  Solving for p_rgh, Initial residual = 0.00145026, Final residual = 7.53652e-08, No Iterations 95
time step continuity errors : sum local = 8.91208e-10, global = -1.22668e-19, cumulative = -2.49136e-18
ExecutionTime = 42.23 s  ClockTime = 49 s

Courant Number mean: 0.0829406 max: 0.486439
Interface Courant Number mean: 0.0334961 max: 0.486439
deltaT = 0.00555556
Time = 1.93333

PIMPLE: iteration 1
MULES: Solving for alpha.water
Phase-1 volume fraction = 0.25  Min(alpha.water) = 7.8342e-28  Max(alpha.water) = 1
MULES: Solving for alpha.water
Phase-1 volume fraction = 0.25  Min(alpha.water) = 8.10009e-28  Max(alpha.water) = 1
DICPCG:  Solving for p_rgh, Initial residual = 0.118965, Final residual = 0.00501663, No Iterations 2
time step continuity errors : sum local = 5.96064e-05, global = -1.32981e-19, cumulative = -2.62434e-18
DICPCG:  Solving for p_rgh, Initial residual = 0.00849109, Final residual = 0.000418757, No Iterations 16
time step continuity errors : sum local = 5.15841e-06, global = -1.09909e-19, cumulative = -2.73425e-18
DICPCG:  Solving for p_rgh, Initial residual = 0.00159631, Final residual = 8.22938e-08, No Iterations 95
time step continuity errors : sum local = 9.86824e-10, global = 6.32445e-20, cumulative = -2.671e-18
ExecutionTime = 42.3 s  ClockTime = 49 s

Courant Number mean: 0.083065 max: 0.486849
Interface Courant Number mean: 0.0334173 max: 0.486849
deltaT = 0.00555556
Time = 1.93889

PIMPLE: iteration 1
MULES: Solving for alpha.water
Phase-1 volume fraction = 0.25  Min(alpha.water) = 8.37281e-28  Max(alpha.water) = 1
MULES: Solving for alpha.water
Phase-1 volume fraction = 0.25  Min(alpha.water) = 8.65317e-28  Max(alpha.water) = 1
DICPCG:  Solving for p_rgh, Initial residual = 0.116004, Final residual = 0.00365319, No Iterations 2
time step continuity errors : sum local = 4.36681e-05, global = 1.36944e-21, cumulative = -2.66963e-18
DICPCG:  Solving for p_rgh, Initial residual = 0.0073292, Final residual = 0.000336394, No Iterations 24
time step continuity errors : sum local = 4.15081e-06, global = -1.56623e-19, cumulative = -2.82626e-18
DICPCG:  Solving for p_rgh, Initial residual = 0.00142757, Final residual = 9.11751e-08, No Iterations 92
time step continuity errors : sum local = 1.09094e-09, global = -2.88685e-20, cumulative = -2.85512e-18
ExecutionTime = 42.37 s  ClockTime = 49 s

Courant Number mean: 0.0831323 max: 0.487458
Interface Courant Number mean: 0.0332613 max: 0.487458
deltaT = 0.00555556
Time = 1.94444

PIMPLE: iteration 1
MULES: Solving for alpha.water
Phase-1 volume fraction = 0.25  Min(alpha.water) = 8.94035e-28  Max(alpha.water) = 1
MULES: Solving for alpha.water
Phase-1 volume fraction = 0.25  Min(alpha.water) = 9.23548e-28  Max(alpha.water) = 1
DICPCG:  Solving for p_rgh, Initial residual = 0.129514, Final residual = 0.00580866, No Iterations 2
time step continuity errors : sum local = 6.89495e-05, global = 5.22575e-20, cumulative = -2.80287e-18
DICPCG:  Solving for p_rgh, Initial residual = 0.00903373, Final residual = 0.000371579, No Iterations 15
time step continuity errors : sum local = 4.69509e-06, global = 2.82777e-20, cumulative = -2.77459e-18
DICPCG:  Solving for p_rgh, Initial residual = 0.00155773, Final residual = 8.75118e-08, No Iterations 98
time step continuity errors : sum local = 1.0343e-09, global = -7.68792e-21, cumulative = -2.78228e-18
ExecutionTime = 42.45 s  ClockTime = 49 s

Courant Number mean: 0.083116 max: 0.488366
Interface Courant Number mean: 0.0336447 max: 0.488366
deltaT = 0.00555556
Time = 1.95

PIMPLE: iteration 1
MULES: Solving for alpha.water
Phase-1 volume fraction = 0.25  Min(alpha.water) = 9.53688e-28  Max(alpha.water) = 1
MULES: Solving for alpha.water
Phase-1 volume fraction = 0.25  Min(alpha.water) = 9.84652e-28  Max(alpha.water) = 1
DICPCG:  Solving for p_rgh, Initial residual = 0.125457, Final residual = 0.00398012, No Iterations 2
time step continuity errors : sum local = 4.73152e-05, global = 1.03041e-19, cumulative = -2.67924e-18
DICPCG:  Solving for p_rgh, Initial residual = 0.00772339, Final residual = 0.000368777, No Iterations 14
time step continuity errors : sum local = 4.63278e-06, global = 2.79982e-21, cumulative = -2.67644e-18
DICPCG:  Solving for p_rgh, Initial residual = 0.00155292, Final residual = 8.38928e-08, No Iterations 96
time step continuity errors : sum local = 1.00548e-09, global = -1.18206e-20, cumulative = -2.68826e-18
ExecutionTime = 42.52 s  ClockTime = 49 s

Courant Number mean: 0.0831234 max: 0.4897
Interface Courant Number mean: 0.0338761 max: 0.4897
deltaT = 0.00555556
Time = 1.95556

PIMPLE: iteration 1
MULES: Solving for alpha.water
Phase-1 volume fraction = 0.25  Min(alpha.water) = 1.01617e-27  Max(alpha.water) = 1
MULES: Solving for alpha.water
Phase-1 volume fraction = 0.25  Min(alpha.water) = 1.04854e-27  Max(alpha.water) = 1
DICPCG:  Solving for p_rgh, Initial residual = 0.112075, Final residual = 0.00420509, No Iterations 2
time step continuity errors : sum local = 5.03611e-05, global = 9.94846e-21, cumulative = -2.67831e-18
DICPCG:  Solving for p_rgh, Initial residual = 0.00810161, Final residual = 0.000351618, No Iterations 24
time step continuity errors : sum local = 4.61083e-06, global = 4.53773e-20, cumulative = -2.63293e-18
DICPCG:  Solving for p_rgh, Initial residual = 0.00157036, Final residual = 6.83649e-08, No Iterations 95
time step continuity errors : sum local = 8.22182e-10, global = -1.49845e-19, cumulative = -2.78278e-18
ExecutionTime = 42.59 s  ClockTime = 49 s

Courant Number mean: 0.083209 max: 0.490706
Interface Courant Number mean: 0.034052 max: 0.490706
deltaT = 0.00555556
Time = 1.96111

PIMPLE: iteration 1
MULES: Solving for alpha.water
Phase-1 volume fraction = 0.25  Min(alpha.water) = 1.08153e-27  Max(alpha.water) = 1
MULES: Solving for alpha.water
Phase-1 volume fraction = 0.25  Min(alpha.water) = 1.11541e-27  Max(alpha.water) = 1
DICPCG:  Solving for p_rgh, Initial residual = 0.12658, Final residual = 0.00516028, No Iterations 2
time step continuity errors : sum local = 6.18722e-05, global = 1.00841e-19, cumulative = -2.68194e-18
DICPCG:  Solving for p_rgh, Initial residual = 0.00879834, Final residual = 0.000323892, No Iterations 15
time step continuity errors : sum local = 3.94193e-06, global = -1.16069e-19, cumulative = -2.798e-18
DICPCG:  Solving for p_rgh, Initial residual = 0.00156108, Final residual = 7.71319e-08, No Iterations 97
time step continuity errors : sum local = 9.24413e-10, global = -1.62741e-19, cumulative = -2.96075e-18
ExecutionTime = 42.66 s  ClockTime = 49 s

Courant Number mean: 0.0832264 max: 0.491939
Interface Courant Number mean: 0.0341145 max: 0.491939
deltaT = 0.00555556
Time = 1.96667

PIMPLE: iteration 1
MULES: Solving for alpha.water
Phase-1 volume fraction = 0.25  Min(alpha.water) = 1.15027e-27  Max(alpha.water) = 1
MULES: Solving for alpha.water
Phase-1 volume fraction = 0.25  Min(alpha.water) = 1.18606e-27  Max(alpha.water) = 1
DICPCG:  Solving for p_rgh, Initial residual = 0.114787, Final residual = 0.00367743, No Iterations 2
time step continuity errors : sum local = 4.37451e-05, global = 1.42516e-19, cumulative = -2.81823e-18
DICPCG:  Solving for p_rgh, Initial residual = 0.00758484, Final residual = 0.000291724, No Iterations 12
time step continuity errors : sum local = 3.62229e-06, global = -1.60495e-19, cumulative = -2.97872e-18
DICPCG:  Solving for p_rgh, Initial residual = 0.00140838, Final residual = 7.97421e-08, No Iterations 95
time step continuity errors : sum local = 9.43457e-10, global = 2.74251e-19, cumulative = -2.70447e-18
ExecutionTime = 42.74 s  ClockTime = 49 s

Courant Number mean: 0.0832555 max: 0.492814
Interface Courant Number mean: 0.0345075 max: 0.492814
deltaT = 0.00555556
Time = 1.97222

PIMPLE: iteration 1
MULES: Solving for alpha.water
Phase-1 volume fraction = 0.25  Min(alpha.water) = 1.22273e-27  Max(alpha.water) = 1
MULES: Solving for alpha.water
Phase-1 volume fraction = 0.25  Min(alpha.water) = 1.26036e-27  Max(alpha.water) = 1
DICPCG:  Solving for p_rgh, Initial residual = 0.120178, Final residual = 0.0049088, No Iterations 2
time step continuity errors : sum local = 5.81724e-05, global = -9.1243e-20, cumulative = -2.79572e-18
DICPCG:  Solving for p_rgh, Initial residual = 0.00859289, Final residual = 0.000392567, No Iterations 22
time step continuity errors : sum local = 4.7193e-06, global = -1.71398e-19, cumulative = -2.96711e-18
DICPCG:  Solving for p_rgh, Initial residual = 0.00155806, Final residual = 7.84282e-08, No Iterations 94
time step continuity errors : sum local = 9.36744e-10, global = -2.40516e-20, cumulative = -2.99117e-18
ExecutionTime = 42.81 s  ClockTime = 50 s

Courant Number mean: 0.0832788 max: 0.491867
Interface Courant Number mean: 0.0345726 max: 0.491867
deltaT = 0.00555556
Time = 1.97778

PIMPLE: iteration 1
MULES: Solving for alpha.water
Phase-1 volume fraction = 0.25  Min(alpha.water) = 1.29872e-27  Max(alpha.water) = 1
MULES: Solving for alpha.water
Phase-1 volume fraction = 0.25  Min(alpha.water) = 1.33806e-27  Max(alpha.water) = 1
DICPCG:  Solving for p_rgh, Initial residual = 0.130209, Final residual = 0.00545982, No Iterations 2
time step continuity errors : sum local = 6.55198e-05, global = -1.39519e-21, cumulative = -2.99256e-18
DICPCG:  Solving for p_rgh, Initial residual = 0.00906666, Final residual = 0.000450492, No Iterations 24
time step continuity errors : sum local = 5.79345e-06, global = -1.69316e-19, cumulative = -3.16188e-18
DICPCG:  Solving for p_rgh, Initial residual = 0.00164419, Final residual = 9.82235e-08, No Iterations 95
time step continuity errors : sum local = 1.1914e-09, global = 2.5899e-20, cumulative = -3.13598e-18
ExecutionTime = 42.88 s  ClockTime = 50 s

Courant Number mean: 0.0832188 max: 0.489552
Interface Courant Number mean: 0.0336529 max: 0.489552
deltaT = 0.00555556
Time = 1.98333

PIMPLE: iteration 1
MULES: Solving for alpha.water
Phase-1 volume fraction = 0.25  Min(alpha.water) = 1.37824e-27  Max(alpha.water) = 1
MULES: Solving for alpha.water
Phase-1 volume fraction = 0.25  Min(alpha.water) = 1.41945e-27  Max(alpha.water) = 1
DICPCG:  Solving for p_rgh, Initial residual = 0.121488, Final residual = 0.00477928, No Iterations 2
time step continuity errors : sum local = 5.7728e-05, global = -3.08498e-20, cumulative = -3.16683e-18
DICPCG:  Solving for p_rgh, Initial residual = 0.00872434, Final residual = 0.000363767, No Iterations 24
time step continuity errors : sum local = 4.52216e-06, global = -2.58276e-19, cumulative = -3.4251e-18
DICPCG:  Solving for p_rgh, Initial residual = 0.00155058, Final residual = 9.15408e-08, No Iterations 95
time step continuity errors : sum local = 1.10232e-09, global = -8.04397e-20, cumulative = -3.50554e-18
ExecutionTime = 42.96 s  ClockTime = 50 s

Courant Number mean: 0.083173 max: 0.486783
Interface Courant Number mean: 0.0335343 max: 0.486783
deltaT = 0.00555556
Time = 1.98889

PIMPLE: iteration 1
MULES: Solving for alpha.water
Phase-1 volume fraction = 0.25  Min(alpha.water) = 1.46109e-27  Max(alpha.water) = 1
MULES: Solving for alpha.water
Phase-1 volume fraction = 0.25  Min(alpha.water) = 1.50377e-27  Max(alpha.water) = 1
DICPCG:  Solving for p_rgh, Initial residual = 0.131047, Final residual = 0.00505758, No Iterations 3
time step continuity errors : sum local = 6.01434e-05, global = -3.69729e-20, cumulative = -3.54252e-18
DICPCG:  Solving for p_rgh, Initial residual = 0.00964533, Final residual = 0.000391043, No Iterations 26
time step continuity errors : sum local = 4.83493e-06, global = -1.16785e-20, cumulative = -3.55419e-18
DICPCG:  Solving for p_rgh, Initial residual = 0.00165355, Final residual = 8.09158e-08, No Iterations 92
time step continuity errors : sum local = 9.56686e-10, global = -4.98085e-20, cumulative = -3.604e-18
ExecutionTime = 43.03 s  ClockTime = 50 s

Courant Number mean: 0.0830414 max: 0.48226
Interface Courant Number mean: 0.0343318 max: 0.48226
deltaT = 0.00555556
Time = 1.99444

PIMPLE: iteration 1
MULES: Solving for alpha.water
Phase-1 volume fraction = 0.25  Min(alpha.water) = 1.54694e-27  Max(alpha.water) = 1
MULES: Solving for alpha.water
Phase-1 volume fraction = 0.25  Min(alpha.water) = 1.59117e-27  Max(alpha.water) = 1
DICPCG:  Solving for p_rgh, Initial residual = 0.134184, Final residual = 0.00512867, No Iterations 2
time step continuity errors : sum local = 6.04305e-05, global = -1.60283e-19, cumulative = -3.76429e-18
DICPCG:  Solving for p_rgh, Initial residual = 0.00939799, Final residual = 0.000389774, No Iterations 14
time step continuity errors : sum local = 4.7572e-06, global = 1.57891e-19, cumulative = -3.6064e-18
DICPCG:  Solving for p_rgh, Initial residual = 0.00168488, Final residual = 7.27192e-08, No Iterations 95
time step continuity errors : sum local = 8.64388e-10, global = 5.03361e-20, cumulative = -3.55606e-18
ExecutionTime = 43.11 s  ClockTime = 50 s

Courant Number mean: 0.0829297 max: 0.476986
Interface Courant Number mean: 0.0338688 max: 0.476986
deltaT = 0.00555556
Time = 2

PIMPLE: iteration 1
MULES: Solving for alpha.water
Phase-1 volume fraction = 0.25  Min(alpha.water) = 1.63659e-27  Max(alpha.water) = 1
MULES: Solving for alpha.water
Phase-1 volume fraction = 0.25  Min(alpha.water) = 1.68311e-27  Max(alpha.water) = 1
DICPCG:  Solving for p_rgh, Initial residual = 0.127948, Final residual = 0.00398151, No Iterations 2
time step continuity errors : sum local = 4.76201e-05, global = 1.91958e-19, cumulative = -3.3641e-18
DICPCG:  Solving for p_rgh, Initial residual = 0.00828863, Final residual = 0.000411843, No Iterations 21
time step continuity errors : sum local = 5.08277e-06, global = -1.4257e-21, cumulative = -3.36553e-18
DICPCG:  Solving for p_rgh, Initial residual = 0.00162281, Final residual = 9.56757e-08, No Iterations 92
time step continuity errors : sum local = 1.16548e-09, global = 3.82276e-20, cumulative = -3.3273e-18
ExecutionTime = 43.54 s  ClockTime = 51 s

End

