/*---------------------------------------------------------------------------*\
| =========                 |                                                 |
| \\      /  F ield         | OpenFOAM: The Open Source CFD Toolbox           |
|  \\    /   O peration     | Version:  2.4.0                                 |
|   \\  /    A nd           | Web:      www.OpenFOAM.org                      |
|    \\/     M anipulation  |                                                 |
\*---------------------------------------------------------------------------*/
Build  : 2.4.0-dcea1e13ff76
Exec   : interFoam
Date   : Oct 29 2016
Time   : 15:41:28
Host   : "f04-036"
PID    : 22063
Case   : /work/job-write0.05s.5459488/mixerVessel2D
nProcs : 1
fileModificationChecking : Monitoring run-time modified files using timeStampMaster
allowSystemOperations : Allowing user-supplied system call operations

// * * * * * * * * * * * * * * * * * * * * * * * * * * * * * * * * * * * * * //
Create time

Create mesh for time = 0


PIMPLE: Operating solver in PISO mode

Reading field p_rgh

Reading field U

Reading/calculating face flux field phi

Reading transportProperties

Selecting incompressible transport model Newtonian
Selecting incompressible transport model Newtonian
Selecting turbulence model type laminar

Reading g
Calculating field g.h

Creating finite volume options from "constant/fvOptions"

Selecting finite volume options model type MRFSource
    Source: MRF1
    - applying source for all time
    - selecting cells using cellZone rotor
    - selected 2304 cell(s) with volume 0.000188361

time step continuity errors : sum local = 0, global = 0, cumulative = 0
DICPCG:  Solving for pcorr, Initial residual = 0, Final residual = 0, No Iterations 0
time step continuity errors : sum local = 0, global = 0, cumulative = 0
Courant Number mean: 0 max: 0

Starting time loop

Courant Number mean: 0 max: 0
Interface Courant Number mean: 0 max: 0
deltaT = 0.00119048
Time = 0.00119048

PIMPLE: iteration 1
MULES: Solving for alpha.water
Phase-1 volume fraction = 0.25  Min(alpha.water) = 0  Max(alpha.water) = 1
MULES: Solving for alpha.water
Phase-1 volume fraction = 0.25  Min(alpha.water) = 0  Max(alpha.water) = 1
DICPCG:  Solving for p_rgh, Initial residual = 1, Final residual = 0.0432212, No Iterations 64
time step continuity errors : sum local = 9.52407e-05, global = -1.02169e-20, cumulative = -1.02169e-20
DICPCG:  Solving for p_rgh, Initial residual = 0.050813, Final residual = 0.00252399, No Iterations 32
time step continuity errors : sum local = 1.37902e-05, global = 2.45855e-20, cumulative = 1.43686e-20
DICPCG:  Solving for p_rgh, Initial residual = 0.0035038, Final residual = 7.75887e-08, No Iterations 103
time step continuity errors : sum local = 3.66684e-10, global = -2.22794e-21, cumulative = 1.21407e-20
ExecutionTime = 0.47 s  ClockTime = 0 s

Courant Number mean: 0.0462624 max: 0.504434
Interface Courant Number mean: 0 max: 0
deltaT = 0.00117914
Time = 0.00236961

PIMPLE: iteration 1
MULES: Solving for alpha.water
Phase-1 volume fraction = 0.25  Min(alpha.water) = 0  Max(alpha.water) = 1
MULES: Solving for alpha.water
Phase-1 volume fraction = 0.25  Min(alpha.water) = 0  Max(alpha.water) = 1
DICPCG:  Solving for p_rgh, Initial residual = 0.634095, Final residual = 0.0284618, No Iterations 39
time step continuity errors : sum local = 0.000134062, global = 1.70479e-20, cumulative = 2.91886e-20
DICPCG:  Solving for p_rgh, Initial residual = 0.0604608, Final residual = 0.00229278, No Iterations 78
time step continuity errors : sum local = 7.46412e-06, global = -4.16278e-20, cumulative = -1.24392e-20
DICPCG:  Solving for p_rgh, Initial residual = 0.00777325, Final residual = 6.58698e-08, No Iterations 109
time step continuity errors : sum local = 1.85882e-10, global = 4.91645e-20, cumulative = 3.67253e-20
ExecutionTime = 0.6 s  ClockTime = 1 s

Courant Number mean: 0.045779 max: 0.518625
Interface Courant Number mean: 0.000917046 max: 0.493931
deltaT = 0.00113547
Time = 0.00350508

PIMPLE: iteration 1
MULES: Solving for alpha.water
Phase-1 volume fraction = 0.25  Min(alpha.water) = 0  Max(alpha.water) = 1
MULES: Solving for alpha.water
Phase-1 volume fraction = 0.25  Min(alpha.water) = 0  Max(alpha.water) = 1
DICPCG:  Solving for p_rgh, Initial residual = 0.333868, Final residual = 0.0113305, No Iterations 11
time step continuity errors : sum local = 2.63286e-05, global = 5.09731e-20, cumulative = 8.76984e-20
DICPCG:  Solving for p_rgh, Initial residual = 0.0275762, Final residual = 0.00122379, No Iterations 28
time step continuity errors : sum local = 2.44901e-06, global = -2.41349e-20, cumulative = 6.35635e-20
DICPCG:  Solving for p_rgh, Initial residual = 0.00329195, Final residual = 9.19623e-08, No Iterations 100
time step continuity errors : sum local = 1.80877e-10, global = 6.62704e-21, cumulative = 7.01905e-20
ExecutionTime = 0.71 s  ClockTime = 1 s

Courant Number mean: 0.0440541 max: 0.50612
Interface Courant Number mean: 0.000858624 max: 0.46084
deltaT = 0.00111463
Time = 0.00461971

PIMPLE: iteration 1
MULES: Solving for alpha.water
Phase-1 volume fraction = 0.25  Min(alpha.water) = 0  Max(alpha.water) = 1
MULES: Solving for alpha.water
Phase-1 volume fraction = 0.25  Min(alpha.water) = 0  Max(alpha.water) = 1
DICPCG:  Solving for p_rgh, Initial residual = 0.194353, Final residual = 0.00821119, No Iterations 10
time step continuity errors : sum local = 1.47912e-05, global = 1.56832e-20, cumulative = 8.58737e-20
DICPCG:  Solving for p_rgh, Initial residual = 0.0206158, Final residual = 0.000878117, No Iterations 22
time step continuity errors : sum local = 1.57982e-06, global = -7.31041e-20, cumulative = 1.27695e-20
DICPCG:  Solving for p_rgh, Initial residual = 0.00262896, Final residual = 9.89919e-08, No Iterations 100
time step continuity errors : sum local = 1.62543e-10, global = -2.74083e-20, cumulative = -1.46388e-20
ExecutionTime = 0.81 s  ClockTime = 1 s

Courant Number mean: 0.0432026 max: 0.49693
Interface Courant Number mean: 0.00100602 max: 0.436579
deltaT = 0.00111463
Time = 0.00573435

PIMPLE: iteration 1
MULES: Solving for alpha.water
Phase-1 volume fraction = 0.25  Min(alpha.water) = 0  Max(alpha.water) = 1
MULES: Solving for alpha.water
Phase-1 volume fraction = 0.25  Min(alpha.water) = 0  Max(alpha.water) = 1
DICPCG:  Solving for p_rgh, Initial residual = 0.125693, Final residual = 0.00609257, No Iterations 7
time step continuity errors : sum local = 9.55089e-06, global = -1.60859e-20, cumulative = -3.07247e-20
DICPCG:  Solving for p_rgh, Initial residual = 0.0164879, Final residual = 0.000739805, No Iterations 10
time step continuity errors : sum local = 1.10406e-06, global = -1.56691e-20, cumulative = -4.63938e-20
DICPCG:  Solving for p_rgh, Initial residual = 0.00206769, Final residual = 6.70468e-08, No Iterations 99
time step continuity errors : sum local = 9.91258e-11, global = -6.74082e-20, cumulative = -1.13802e-19
ExecutionTime = 0.91 s  ClockTime = 1 s

Courant Number mean: 0.0431664 max: 0.497359
Interface Courant Number mean: 0.00117282 max: 0.41987
deltaT = 0.00111463
Time = 0.00684898

PIMPLE: iteration 1
MULES: Solving for alpha.water
Phase-1 volume fraction = 0.25  Min(alpha.water) = 0  Max(alpha.water) = 1
MULES: Solving for alpha.water
Phase-1 volume fraction = 0.25  Min(alpha.water) = 0  Max(alpha.water) = 1
DICPCG:  Solving for p_rgh, Initial residual = 0.0932896, Final residual = 0.00456707, No Iterations 4
time step continuity errors : sum local = 6.5326e-06, global = 5.91116e-20, cumulative = -5.46905e-20
DICPCG:  Solving for p_rgh, Initial residual = 0.013731, Final residual = 0.000617482, No Iterations 17
time step continuity errors : sum local = 8.74802e-07, global = 1.18263e-20, cumulative = -4.28642e-20
DICPCG:  Solving for p_rgh, Initial residual = 0.00193038, Final residual = 8.62635e-08, No Iterations 102
time step continuity errors : sum local = 1.18829e-10, global = 8.79294e-20, cumulative = 4.50653e-20
ExecutionTime = 1.01 s  ClockTime = 1 s

Courant Number mean: 0.0431237 max: 0.497015
Interface Courant Number mean: 0.00147458 max: 0.330789
deltaT = 0.00111463
Time = 0.00796361

PIMPLE: iteration 1
MULES: Solving for alpha.water
Phase-1 volume fraction = 0.25  Min(alpha.water) = 0  Max(alpha.water) = 1
MULES: Solving for alpha.water
Phase-1 volume fraction = 0.25  Min(alpha.water) = 0  Max(alpha.water) = 1
DICPCG:  Solving for p_rgh, Initial residual = 0.0765977, Final residual = 0.00233633, No Iterations 3
time step continuity errors : sum local = 3.13095e-06, global = -8.97989e-21, cumulative = 3.60854e-20
DICPCG:  Solving for p_rgh, Initial residual = 0.0114953, Final residual = 0.000524493, No Iterations 17
time step continuity errors : sum local = 6.90134e-07, global = -5.823e-20, cumulative = -2.21446e-20
DICPCG:  Solving for p_rgh, Initial residual = 0.00169166, Final residual = 9.9817e-08, No Iterations 100
time step continuity errors : sum local = 1.29192e-10, global = 3.55853e-21, cumulative = -1.8586e-20
ExecutionTime = 1.11 s  ClockTime = 1 s

Courant Number mean: 0.0430783 max: 0.496681
Interface Courant Number mean: 0.00149212 max: 0.324704
deltaT = 0.00111463
Time = 0.00907824

PIMPLE: iteration 1
MULES: Solving for alpha.water
Phase-1 volume fraction = 0.25  Min(alpha.water) = 0  Max(alpha.water) = 1
MULES: Solving for alpha.water
Phase-1 volume fraction = 0.25  Min(alpha.water) = 0  Max(alpha.water) = 1
DICPCG:  Solving for p_rgh, Initial residual = 0.0647948, Final residual = 0.00263717, No Iterations 2
time step continuity errors : sum local = 3.3359e-06, global = 2.83528e-20, cumulative = 9.76678e-21
DICPCG:  Solving for p_rgh, Initial residual = 0.0110156, Final residual = 0.000488137, No Iterations 15
time step continuity errors : sum local = 6.19207e-07, global = 1.03196e-20, cumulative = 2.00864e-20
DICPCG:  Solving for p_rgh, Initial residual = 0.00170116, Final residual = 8.78214e-08, No Iterations 99
time step continuity errors : sum local = 1.07734e-10, global = 1.39063e-20, cumulative = 3.39927e-20
ExecutionTime = 1.21 s  ClockTime = 1 s

Courant Number mean: 0.0430383 max: 0.496087
Interface Courant Number mean: 0.00144584 max: 0.317619
deltaT = 0.00111463
Time = 0.0101929

PIMPLE: iteration 1
MULES: Solving for alpha.water
Phase-1 volume fraction = 0.25  Min(alpha.water) = 0  Max(alpha.water) = 1
MULES: Solving for alpha.water
Phase-1 volume fraction = 0.25  Min(alpha.water) = 0  Max(alpha.water) = 1
DICPCG:  Solving for p_rgh, Initial residual = 0.0579921, Final residual = 0.00211881, No Iterations 2
time step continuity errors : sum local = 2.55486e-06, global = 3.55847e-20, cumulative = 6.95774e-20
DICPCG:  Solving for p_rgh, Initial residual = 0.0103591, Final residual = 0.000460551, No Iterations 17
time step continuity errors : sum local = 5.62351e-07, global = -5.76675e-20, cumulative = 1.191e-20
DICPCG:  Solving for p_rgh, Initial residual = 0.00175042, Final residual = 7.86088e-08, No Iterations 99
time step continuity errors : sum local = 9.28581e-11, global = -8.55562e-21, cumulative = 3.35434e-21
ExecutionTime = 1.31 s  ClockTime = 1 s

Courant Number mean: 0.0429997 max: 0.495647
Interface Courant Number mean: 0.00139761 max: 0.309502
deltaT = 0.00111463
Time = 0.0113075

PIMPLE: iteration 1
MULES: Solving for alpha.water
Phase-1 volume fraction = 0.25  Min(alpha.water) = 0  Max(alpha.water) = 1
MULES: Solving for alpha.water
Phase-1 volume fraction = 0.25  Min(alpha.water) = 0  Max(alpha.water) = 1
DICPCG:  Solving for p_rgh, Initial residual = 0.0551494, Final residual = 0.00198458, No Iterations 2
time step continuity errors : sum local = 2.29936e-06, global = 3.5199e-20, cumulative = 3.85533e-20
DICPCG:  Solving for p_rgh, Initial residual = 0.0100223, Final residual = 0.000482047, No Iterations 15
time step continuity errors : sum local = 5.52524e-07, global = 1.37474e-20, cumulative = 5.23007e-20
DICPCG:  Solving for p_rgh, Initial residual = 0.00175145, Final residual = 9.63028e-08, No Iterations 98
time step continuity errors : sum local = 1.09168e-10, global = 5.70704e-20, cumulative = 1.09371e-19
ExecutionTime = 1.4 s  ClockTime = 1 s

Courant Number mean: 0.0429688 max: 0.495166
Interface Courant Number mean: 0.00134893 max: 0.307764
deltaT = 0.00111463
Time = 0.0124221

PIMPLE: iteration 1
MULES: Solving for alpha.water
Phase-1 volume fraction = 0.25  Min(alpha.water) = 0  Max(alpha.water) = 1
MULES: Solving for alpha.water
Phase-1 volume fraction = 0.25  Min(alpha.water) = 0  Max(alpha.water) = 1
DICPCG:  Solving for p_rgh, Initial residual = 0.0512403, Final residual = 0.00221112, No Iterations 2
time step continuity errors : sum local = 2.44465e-06, global = -2.68964e-21, cumulative = 1.06681e-19
DICPCG:  Solving for p_rgh, Initial residual = 0.00991169, Final residual = 0.000475534, No Iterations 10
time step continuity errors : sum local = 5.23049e-07, global = -8.57833e-20, cumulative = 2.08982e-20
DICPCG:  Solving for p_rgh, Initial residual = 0.00179955, Final residual = 8.56593e-08, No Iterations 98
time step continuity errors : sum local = 9.19674e-11, global = 2.66139e-21, cumulative = 2.35596e-20
ExecutionTime = 1.5 s  ClockTime = 1 s

Courant Number mean: 0.0429576 max: 0.494466
Interface Courant Number mean: 0.00133303 max: 0.305556
deltaT = 0.00112578
Time = 0.0135479

PIMPLE: iteration 1
MULES: Solving for alpha.water
Phase-1 volume fraction = 0.25  Min(alpha.water) = 0  Max(alpha.water) = 1
MULES: Solving for alpha.water
Phase-1 volume fraction = 0.25  Min(alpha.water) = 0  Max(alpha.water) = 1
DICPCG:  Solving for p_rgh, Initial residual = 0.0502874, Final residual = 0.00177327, No Iterations 2
time step continuity errors : sum local = 1.88163e-06, global = -1.05609e-20, cumulative = 1.29987e-20
DICPCG:  Solving for p_rgh, Initial residual = 0.00966409, Final residual = 0.000448001, No Iterations 9
time step continuity errors : sum local = 4.66258e-07, global = 2.79785e-20, cumulative = 4.09772e-20
DICPCG:  Solving for p_rgh, Initial residual = 0.00179826, Final residual = 9.20767e-08, No Iterations 98
time step continuity errors : sum local = 9.44807e-11, global = 2.65471e-20, cumulative = 6.75243e-20
ExecutionTime = 1.6 s  ClockTime = 2 s

Courant Number mean: 0.0433786 max: 0.49845
Interface Courant Number mean: 0.00136358 max: 0.305857
deltaT = 0.00112578
Time = 0.0146737

PIMPLE: iteration 1
MULES: Solving for alpha.water
Phase-1 volume fraction = 0.25  Min(alpha.water) = 0  Max(alpha.water) = 1
MULES: Solving for alpha.water
Phase-1 volume fraction = 0.25  Min(alpha.water) = 0  Max(alpha.water) = 1
DICPCG:  Solving for p_rgh, Initial residual = 0.0463971, Final residual = 0.00202684, No Iterations 2
time step continuity errors : sum local = 2.02411e-06, global = -1.13255e-20, cumulative = 5.61987e-20
DICPCG:  Solving for p_rgh, Initial residual = 0.0096031, Final residual = 0.000451319, No Iterations 8
time step continuity errors : sum local = 4.40181e-07, global = 2.17548e-20, cumulative = 7.79536e-20
DICPCG:  Solving for p_rgh, Initial residual = 0.00172856, Final residual = 7.66913e-08, No Iterations 99
time step continuity errors : sum local = 7.45379e-11, global = 5.3187e-21, cumulative = 8.32723e-20
ExecutionTime = 1.69 s  ClockTime = 2 s

Courant Number mean: 0.0433643 max: 0.49707
Interface Courant Number mean: 0.00143411 max: 0.294937
deltaT = 0.00112578
Time = 0.0157995

PIMPLE: iteration 1
MULES: Solving for alpha.water
Phase-1 volume fraction = 0.25  Min(alpha.water) = 0  Max(alpha.water) = 1
MULES: Solving for alpha.water
Phase-1 volume fraction = 0.25  Min(alpha.water) = 0  Max(alpha.water) = 1
DICPCG:  Solving for p_rgh, Initial residual = 0.0455498, Final residual = 0.00206467, No Iterations 3
time step continuity errors : sum local = 1.95359e-06, global = -7.54839e-20, cumulative = 7.7884e-21
DICPCG:  Solving for p_rgh, Initial residual = 0.010224, Final residual = 0.0004609, No Iterations 25
time step continuity errors : sum local = 4.34552e-07, global = 6.56555e-20, cumulative = 7.34439e-20
DICPCG:  Solving for p_rgh, Initial residual = 0.00174285, Final residual = 8.14925e-08, No Iterations 99
time step continuity errors : sum local = 7.49593e-11, global = 1.04337e-20, cumulative = 8.38776e-20
ExecutionTime = 1.79 s  ClockTime = 2 s

Courant Number mean: 0.0433536 max: 0.495152
Interface Courant Number mean: 0.00163622 max: 0.29098
deltaT = 0.00112578
Time = 0.0169253

PIMPLE: iteration 1
MULES: Solving for alpha.water
Phase-1 volume fraction = 0.25  Min(alpha.water) = 0  Max(alpha.water) = 1
MULES: Solving for alpha.water
Phase-1 volume fraction = 0.25  Min(alpha.water) = 0  Max(alpha.water) = 1
DICPCG:  Solving for p_rgh, Initial residual = 0.044064, Final residual = 0.00195926, No Iterations 2
time step continuity errors : sum local = 1.7688e-06, global = 6.5811e-20, cumulative = 1.49689e-19
DICPCG:  Solving for p_rgh, Initial residual = 0.00943307, Final residual = 0.000455167, No Iterations 10
time step continuity errors : sum local = 4.09069e-07, global = -7.18939e-20, cumulative = 7.77948e-20
DICPCG:  Solving for p_rgh, Initial residual = 0.0016192, Final residual = 8.45748e-08, No Iterations 99
time step continuity errors : sum local = 7.46041e-11, global = -3.63535e-20, cumulative = 4.14412e-20
ExecutionTime = 1.89 s  ClockTime = 2 s

Courant Number mean: 0.0433636 max: 0.492722
Interface Courant Number mean: 0.0016871 max: 0.285876
deltaT = 0.00113763
Time = 0.0180629

PIMPLE: iteration 1
MULES: Solving for alpha.water
Phase-1 volume fraction = 0.25  Min(alpha.water) = 0  Max(alpha.water) = 1
MULES: Solving for alpha.water
Phase-1 volume fraction = 0.25  Min(alpha.water) = 0  Max(alpha.water) = 1
DICPCG:  Solving for p_rgh, Initial residual = 0.0465632, Final residual = 0.00172309, No Iterations 3
time step continuity errors : sum local = 1.51425e-06, global = 6.01035e-21, cumulative = 4.74516e-20
DICPCG:  Solving for p_rgh, Initial residual = 0.0101259, Final residual = 0.000496732, No Iterations 12
time step continuity errors : sum local = 4.32714e-07, global = 5.00712e-20, cumulative = 9.75228e-20
DICPCG:  Solving for p_rgh, Initial residual = 0.00170167, Final residual = 9.84506e-08, No Iterations 98
time step continuity errors : sum local = 8.37413e-11, global = 1.22737e-20, cumulative = 1.09797e-19
ExecutionTime = 1.99 s  ClockTime = 2 s

Courant Number mean: 0.0438479 max: 0.494794
Interface Courant Number mean: 0.00159034 max: 0.282578
deltaT = 0.00113763
Time = 0.0192005

PIMPLE: iteration 1
MULES: Solving for alpha.water
Phase-1 volume fraction = 0.25  Min(alpha.water) = 0  Max(alpha.water) = 1
MULES: Solving for alpha.water
Phase-1 volume fraction = 0.25  Min(alpha.water) = 0  Max(alpha.water) = 1
DICPCG:  Solving for p_rgh, Initial residual = 0.044034, Final residual = 0.00213118, No Iterations 2
time step continuity errors : sum local = 1.7772e-06, global = 2.14757e-20, cumulative = 1.31272e-19
DICPCG:  Solving for p_rgh, Initial residual = 0.00973798, Final residual = 0.000402829, No Iterations 7
time step continuity errors : sum local = 3.31917e-07, global = 8.25707e-20, cumulative = 2.13843e-19
DICPCG:  Solving for p_rgh, Initial residual = 0.00155769, Final residual = 9.05845e-08, No Iterations 98
time step continuity errors : sum local = 7.36939e-11, global = -2.69447e-20, cumulative = 1.86898e-19
ExecutionTime = 2.08 s  ClockTime = 2 s

Courant Number mean: 0.0438731 max: 0.491008
Interface Courant Number mean: 0.00155667 max: 0.277221
deltaT = 0.00114999
Time = 0.0203505

PIMPLE: iteration 1
MULES: Solving for alpha.water
Phase-1 volume fraction = 0.25  Min(alpha.water) = 0  Max(alpha.water) = 1
MULES: Solving for alpha.water
Phase-1 volume fraction = 0.25  Min(alpha.water) = 0  Max(alpha.water) = 1
DICPCG:  Solving for p_rgh, Initial residual = 0.0417025, Final residual = 0.00158987, No Iterations 3
time step continuity errors : sum local = 1.294e-06, global = 7.11567e-20, cumulative = 2.58055e-19
DICPCG:  Solving for p_rgh, Initial residual = 0.0101993, Final residual = 0.000478082, No Iterations 8
time step continuity errors : sum local = 3.82042e-07, global = 4.00948e-20, cumulative = 2.9815e-19
DICPCG:  Solving for p_rgh, Initial residual = 0.0016457, Final residual = 9.70092e-08, No Iterations 97
time step continuity errors : sum local = 7.69944e-11, global = 7.68233e-20, cumulative = 3.74973e-19
ExecutionTime = 2.18 s  ClockTime = 2 s

Courant Number mean: 0.0443734 max: 0.491802
Interface Courant Number mean: 0.00164193 max: 0.281143
deltaT = 0.00116277
Time = 0.0215133

PIMPLE: iteration 1
MULES: Solving for alpha.water
Phase-1 volume fraction = 0.25  Min(alpha.water) = 0  Max(alpha.water) = 1
MULES: Solving for alpha.water
Phase-1 volume fraction = 0.25  Min(alpha.water) = 0  Max(alpha.water) = 1
DICPCG:  Solving for p_rgh, Initial residual = 0.041962, Final residual = 0.00166601, No Iterations 3
time step continuity errors : sum local = 1.32038e-06, global = 2.9094e-20, cumulative = 4.04067e-19
DICPCG:  Solving for p_rgh, Initial residual = 0.0105848, Final residual = 0.000508707, No Iterations 11
time step continuity errors : sum local = 4.06414e-07, global = -4.48249e-20, cumulative = 3.59242e-19
DICPCG:  Solving for p_rgh, Initial residual = 0.00170955, Final residual = 8.98514e-08, No Iterations 97
time step continuity errors : sum local = 6.92825e-11, global = 6.42827e-20, cumulative = 4.23525e-19
ExecutionTime = 2.27 s  ClockTime = 2 s

Courant Number mean: 0.0448935 max: 0.491955
Interface Courant Number mean: 0.00172332 max: 0.285145
deltaT = 0.00117599
Time = 0.0226893

PIMPLE: iteration 1
MULES: Solving for alpha.water
Phase-1 volume fraction = 0.25  Min(alpha.water) = 0  Max(alpha.water) = 1
MULES: Solving for alpha.water
Phase-1 volume fraction = 0.25  Min(alpha.water) = 0  Max(alpha.water) = 1
DICPCG:  Solving for p_rgh, Initial residual = 0.0410241, Final residual = 0.00149186, No Iterations 3
time step continuity errors : sum local = 1.15962e-06, global = -1.0427e-20, cumulative = 4.13098e-19
DICPCG:  Solving for p_rgh, Initial residual = 0.010543, Final residual = 0.000459058, No Iterations 11
time step continuity errors : sum local = 3.57647e-07, global = -1.87351e-20, cumulative = 3.94363e-19
DICPCG:  Solving for p_rgh, Initial residual = 0.00164596, Final residual = 9.49891e-08, No Iterations 97
time step continuity errors : sum local = 7.26617e-11, global = 4.5062e-20, cumulative = 4.39425e-19
ExecutionTime = 2.37 s  ClockTime = 2 s

Courant Number mean: 0.0454545 max: 0.491715
Interface Courant Number mean: 0.00175266 max: 0.289032
deltaT = 0.00118966
Time = 0.0238789

PIMPLE: iteration 1
MULES: Solving for alpha.water
Phase-1 volume fraction = 0.25  Min(alpha.water) = 0  Max(alpha.water) = 1
MULES: Solving for alpha.water
Phase-1 volume fraction = 0.25  Min(alpha.water) = 0  Max(alpha.water) = 1
DICPCG:  Solving for p_rgh, Initial residual = 0.0408619, Final residual = 0.00179442, No Iterations 3
time step continuity errors : sum local = 1.3657e-06, global = 2.80186e-20, cumulative = 4.67443e-19
DICPCG:  Solving for p_rgh, Initial residual = 0.0110541, Final residual = 0.00047982, No Iterations 9
time step continuity errors : sum local = 3.58586e-07, global = -4.85802e-20, cumulative = 4.18863e-19
DICPCG:  Solving for p_rgh, Initial residual = 0.00169322, Final residual = 7.36934e-08, No Iterations 98
time step continuity errors : sum local = 5.46251e-11, global = -6.0316e-21, cumulative = 4.12832e-19
ExecutionTime = 2.47 s  ClockTime = 2 s

Courant Number mean: 0.0460363 max: 0.490759
Interface Courant Number mean: 0.00187152 max: 0.292458
deltaT = 0.00120382
Time = 0.0250827

PIMPLE: iteration 1
MULES: Solving for alpha.water
Phase-1 volume fraction = 0.25  Min(alpha.water) = 0  Max(alpha.water) = 1
MULES: Solving for alpha.water
Phase-1 volume fraction = 0.25  Min(alpha.water) = 0  Max(alpha.water) = 1
DICPCG:  Solving for p_rgh, Initial residual = 0.0397932, Final residual = 0.00185895, No Iterations 3
time step continuity errors : sum local = 1.38403e-06, global = 5.86466e-21, cumulative = 4.18696e-19
DICPCG:  Solving for p_rgh, Initial residual = 0.0113915, Final residual = 0.000498216, No Iterations 17
time step continuity errors : sum local = 3.65337e-07, global = 4.03653e-20, cumulative = 4.59062e-19
DICPCG:  Solving for p_rgh, Initial residual = 0.00177454, Final residual = 9.76648e-08, No Iterations 101
time step continuity errors : sum local = 7.12104e-11, global = -9.90489e-20, cumulative = 3.60013e-19
ExecutionTime = 2.57 s  ClockTime = 2 s

Courant Number mean: 0.0466428 max: 0.490465
Interface Courant Number mean: 0.00190446 max: 0.293746
deltaT = 0.0012185
Time = 0.0263012

PIMPLE: iteration 1
MULES: Solving for alpha.water
Phase-1 volume fraction = 0.25  Min(alpha.water) = 0  Max(alpha.water) = 1
MULES: Solving for alpha.water
Phase-1 volume fraction = 0.25  Min(alpha.water) = 0  Max(alpha.water) = 1
DICPCG:  Solving for p_rgh, Initial residual = 0.0403896, Final residual = 0.00174723, No Iterations 3
time step continuity errors : sum local = 1.27737e-06, global = -3.38905e-21, cumulative = 3.56624e-19
DICPCG:  Solving for p_rgh, Initial residual = 0.0115253, Final residual = 0.000491369, No Iterations 11
time step continuity errors : sum local = 3.74621e-07, global = 5.05699e-21, cumulative = 3.61681e-19
DICPCG:  Solving for p_rgh, Initial residual = 0.00178585, Final residual = 9.95187e-08, No Iterations 99
time step continuity errors : sum local = 7.09198e-11, global = 1.76724e-20, cumulative = 3.79353e-19
ExecutionTime = 2.66 s  ClockTime = 3 s

Courant Number mean: 0.0472716 max: 0.491414
Interface Courant Number mean: 0.00195769 max: 0.335406
deltaT = 0.00123373
Time = 0.027535

PIMPLE: iteration 1
MULES: Solving for alpha.water
Phase-1 volume fraction = 0.25  Min(alpha.water) = 0  Max(alpha.water) = 1
MULES: Solving for alpha.water
Phase-1 volume fraction = 0.25  Min(alpha.water) = 0  Max(alpha.water) = 1
DICPCG:  Solving for p_rgh, Initial residual = 0.0388978, Final residual = 0.00168623, No Iterations 3
time step continuity errors : sum local = 1.21594e-06, global = -5.77868e-20, cumulative = 3.21566e-19
DICPCG:  Solving for p_rgh, Initial residual = 0.0114781, Final residual = 0.000573519, No Iterations 11
time step continuity errors : sum local = 4.13968e-07, global = -7.58998e-20, cumulative = 2.45666e-19
DICPCG:  Solving for p_rgh, Initial residual = 0.00181964, Final residual = 6.23206e-08, No Iterations 100
time step continuity errors : sum local = 4.40885e-11, global = -7.04594e-20, cumulative = 1.75207e-19
ExecutionTime = 2.76 s  ClockTime = 3 s

Courant Number mean: 0.0479218 max: 0.491813
Interface Courant Number mean: 0.00183001 max: 0.345908
deltaT = 0.00124955
Time = 0.0287845

PIMPLE: iteration 1
MULES: Solving for alpha.water
Phase-1 volume fraction = 0.25  Min(alpha.water) = 0  Max(alpha.water) = 1
MULES: Solving for alpha.water
Phase-1 volume fraction = 0.25  Min(alpha.water) = 0  Max(alpha.water) = 1
DICPCG:  Solving for p_rgh, Initial residual = 0.0409452, Final residual = 0.00153697, No Iterations 4
time step continuity errors : sum local = 1.10461e-06, global = 6.41815e-21, cumulative = 1.81625e-19
DICPCG:  Solving for p_rgh, Initial residual = 0.0118918, Final residual = 0.000525557, No Iterations 13
time step continuity errors : sum local = 3.76147e-07, global = -4.45426e-20, cumulative = 1.37082e-19
DICPCG:  Solving for p_rgh, Initial residual = 0.001784, Final residual = 9.68348e-08, No Iterations 99
time step continuity errors : sum local = 6.84382e-11, global = 1.6763e-20, cumulative = 1.53845e-19
ExecutionTime = 2.86 s  ClockTime = 3 s

Courant Number mean: 0.048602 max: 0.491674
Interface Courant Number mean: 0.00195017 max: 0.355037
deltaT = 0.00126599
Time = 0.0300505

PIMPLE: iteration 1
MULES: Solving for alpha.water
Phase-1 volume fraction = 0.25  Min(alpha.water) = 0  Max(alpha.water) = 1
MULES: Solving for alpha.water
Phase-1 volume fraction = 0.25  Min(alpha.water) = 0  Max(alpha.water) = 1
DICPCG:  Solving for p_rgh, Initial residual = 0.0379827, Final residual = 0.00173941, No Iterations 4
time step continuity errors : sum local = 1.25007e-06, global = -3.41502e-20, cumulative = 1.19695e-19
DICPCG:  Solving for p_rgh, Initial residual = 0.0122836, Final residual = 0.000613569, No Iterations 17
time step continuity errors : sum local = 4.44515e-07, global = 2.09008e-20, cumulative = 1.40596e-19
DICPCG:  Solving for p_rgh, Initial residual = 0.00187377, Final residual = 9.85108e-08, No Iterations 100
time step continuity errors : sum local = 6.96951e-11, global = -6.50022e-23, cumulative = 1.40531e-19
ExecutionTime = 2.96 s  ClockTime = 3 s

Courant Number mean: 0.0493085 max: 0.491031
Interface Courant Number mean: 0.00203916 max: 0.36353
deltaT = 0.0012831
Time = 0.0313336

PIMPLE: iteration 1
MULES: Solving for alpha.water
Phase-1 volume fraction = 0.25  Min(alpha.water) = 0  Max(alpha.water) = 1
MULES: Solving for alpha.water
Phase-1 volume fraction = 0.25  Min(alpha.water) = 0  Max(alpha.water) = 1
DICPCG:  Solving for p_rgh, Initial residual = 0.0362622, Final residual = 0.00140274, No Iterations 4
time step continuity errors : sum local = 1.01009e-06, global = 8.60756e-20, cumulative = 2.26606e-19
DICPCG:  Solving for p_rgh, Initial residual = 0.0121875, Final residual = 0.000552434, No Iterations 11
time step continuity errors : sum local = 3.92341e-07, global = 1.83907e-20, cumulative = 2.44997e-19
DICPCG:  Solving for p_rgh, Initial residual = 0.00180412, Final residual = 8.82986e-08, No Iterations 94
time step continuity errors : sum local = 6.24859e-11, global = -5.65175e-20, cumulative = 1.8848e-19
ExecutionTime = 3.06 s  ClockTime = 3 s

Courant Number mean: 0.050035 max: 0.489977
Interface Courant Number mean: 0.00208936 max: 0.371247
deltaT = 0.00130092
Time = 0.0326346

PIMPLE: iteration 1
MULES: Solving for alpha.water
Phase-1 volume fraction = 0.25  Min(alpha.water) = 0  Max(alpha.water) = 1
MULES: Solving for alpha.water
Phase-1 volume fraction = 0.25  Min(alpha.water) = 0  Max(alpha.water) = 1
DICPCG:  Solving for p_rgh, Initial residual = 0.0337614, Final residual = 0.00165471, No Iterations 5
time step continuity errors : sum local = 1.19625e-06, global = 1.53242e-19, cumulative = 3.41722e-19
DICPCG:  Solving for p_rgh, Initial residual = 0.0124681, Final residual = 0.000492038, No Iterations 11
time step continuity errors : sum local = 3.61143e-07, global = -3.60406e-20, cumulative = 3.05681e-19
DICPCG:  Solving for p_rgh, Initial residual = 0.00178959, Final residual = 9.02052e-08, No Iterations 95
time step continuity errors : sum local = 6.37632e-11, global = -2.14587e-20, cumulative = 2.84223e-19
ExecutionTime = 3.15 s  ClockTime = 3 s

Courant Number mean: 0.0507915 max: 0.488691
Interface Courant Number mean: 0.00220911 max: 0.377735
deltaT = 0.00131951
Time = 0.0339541

PIMPLE: iteration 1
MULES: Solving for alpha.water
Phase-1 volume fraction = 0.25  Min(alpha.water) = 0  Max(alpha.water) = 1
MULES: Solving for alpha.water
Phase-1 volume fraction = 0.25  Min(alpha.water) = 0  Max(alpha.water) = 1
DICPCG:  Solving for p_rgh, Initial residual = 0.031216, Final residual = 0.00153978, No Iterations 4
time step continuity errors : sum local = 1.11153e-06, global = 5.19133e-20, cumulative = 3.36136e-19
DICPCG:  Solving for p_rgh, Initial residual = 0.0123918, Final residual = 0.000511413, No Iterations 11
time step continuity errors : sum local = 3.7337e-07, global = -1.46191e-20, cumulative = 3.21517e-19
DICPCG:  Solving for p_rgh, Initial residual = 0.00182061, Final residual = 8.81226e-08, No Iterations 99
time step continuity errors : sum local = 6.24492e-11, global = -2.34674e-20, cumulative = 2.98049e-19
ExecutionTime = 3.25 s  ClockTime = 3 s

Courant Number mean: 0.0515822 max: 0.487309
Interface Courant Number mean: 0.00224554 max: 0.383068
deltaT = 0.00133891
Time = 0.035293

PIMPLE: iteration 1
MULES: Solving for alpha.water
Phase-1 volume fraction = 0.25  Min(alpha.water) = 0  Max(alpha.water) = 1
MULES: Solving for alpha.water
Phase-1 volume fraction = 0.25  Min(alpha.water) = 0  Max(alpha.water) = 1
DICPCG:  Solving for p_rgh, Initial residual = 0.0360332, Final residual = 0.00168005, No Iterations 6
time step continuity errors : sum local = 1.22016e-06, global = 5.05814e-20, cumulative = 3.48631e-19
DICPCG:  Solving for p_rgh, Initial residual = 0.0124285, Final residual = 0.000547551, No Iterations 11
time step continuity errors : sum local = 3.9775e-07, global = -6.73665e-20, cumulative = 2.81264e-19
DICPCG:  Solving for p_rgh, Initial residual = 0.00185049, Final residual = 8.15452e-08, No Iterations 95
time step continuity errors : sum local = 5.78439e-11, global = -5.34712e-21, cumulative = 2.75917e-19
ExecutionTime = 3.35 s  ClockTime = 3 s

Courant Number mean: 0.0524058 max: 0.485845
Interface Courant Number mean: 0.00232187 max: 0.387262
deltaT = 0.0013592
Time = 0.0366522

PIMPLE: iteration 1
MULES: Solving for alpha.water
Phase-1 volume fraction = 0.25  Min(alpha.water) = 0  Max(alpha.water) = 1
MULES: Solving for alpha.water
Phase-1 volume fraction = 0.25  Min(alpha.water) = 0  Max(alpha.water) = 1
DICPCG:  Solving for p_rgh, Initial residual = 0.0333044, Final residual = 0.00151785, No Iterations 5
time step continuity errors : sum local = 1.10785e-06, global = -5.36955e-20, cumulative = 2.22222e-19
DICPCG:  Solving for p_rgh, Initial residual = 0.0122021, Final residual = 0.000469816, No Iterations 11
time step continuity errors : sum local = 3.40386e-07, global = 6.42333e-20, cumulative = 2.86455e-19
DICPCG:  Solving for p_rgh, Initial residual = 0.00177797, Final residual = 9.38966e-08, No Iterations 98
time step continuity errors : sum local = 6.73797e-11, global = -4.89698e-21, cumulative = 2.81558e-19
ExecutionTime = 3.45 s  ClockTime = 3 s

Courant Number mean: 0.053266 max: 0.484198
Interface Courant Number mean: 0.00241794 max: 0.408491
deltaT = 0.00140235
Time = 0.0380545

PIMPLE: iteration 1
MULES: Solving for alpha.water
Phase-1 volume fraction = 0.25  Min(alpha.water) = 0  Max(alpha.water) = 1
MULES: Solving for alpha.water
Phase-1 volume fraction = 0.25  Min(alpha.water) = 0  Max(alpha.water) = 1
DICPCG:  Solving for p_rgh, Initial residual = 0.0368009, Final residual = 0.0017194, No Iterations 7
time step continuity errors : sum local = 1.30159e-06, global = 5.46948e-20, cumulative = 3.36253e-19
DICPCG:  Solving for p_rgh, Initial residual = 0.0128794, Final residual = 0.000558322, No Iterations 22
time step continuity errors : sum local = 4.22586e-07, global = -4.74298e-20, cumulative = 2.88823e-19
DICPCG:  Solving for p_rgh, Initial residual = 0.00196336, Final residual = 7.44141e-08, No Iterations 100
time step continuity errors : sum local = 5.50275e-11, global = -9.1406e-20, cumulative = 1.97417e-19
ExecutionTime = 3.55 s  ClockTime = 3 s

Courant Number mean: 0.0550324 max: 0.489134
Interface Courant Number mean: 0.00245824 max: 0.420262
deltaT = 0.00142534
Time = 0.0394798

PIMPLE: iteration 1
MULES: Solving for alpha.water
Phase-1 volume fraction = 0.25  Min(alpha.water) = 0  Max(alpha.water) = 1
MULES: Solving for alpha.water
Phase-1 volume fraction = 0.25  Min(alpha.water) = 0  Max(alpha.water) = 1
DICPCG:  Solving for p_rgh, Initial residual = 0.0334571, Final residual = 0.00150808, No Iterations 5
time step continuity errors : sum local = 1.14886e-06, global = 1.11856e-20, cumulative = 2.08603e-19
DICPCG:  Solving for p_rgh, Initial residual = 0.0129627, Final residual = 0.000615116, No Iterations 13
time step continuity errors : sum local = 4.63826e-07, global = 1.16292e-20, cumulative = 2.20232e-19
DICPCG:  Solving for p_rgh, Initial residual = 0.00197442, Final residual = 9.99449e-08, No Iterations 101
time step continuity errors : sum local = 7.5153e-11, global = 1.41304e-20, cumulative = 2.34362e-19
ExecutionTime = 3.65 s  ClockTime = 4 s

Courant Number mean: 0.0560147 max: 0.486411
Interface Courant Number mean: 0.00261566 max: 0.424745
deltaT = 0.00144949
Time = 0.0409293

PIMPLE: iteration 1
MULES: Solving for alpha.water
Phase-1 volume fraction = 0.25  Min(alpha.water) = 0  Max(alpha.water) = 1
MULES: Solving for alpha.water
Phase-1 volume fraction = 0.25  Min(alpha.water) = 0  Max(alpha.water) = 1
DICPCG:  Solving for p_rgh, Initial residual = 0.033103, Final residual = 0.00160524, No Iterations 5
time step continuity errors : sum local = 1.23865e-06, global = -2.28046e-20, cumulative = 2.11558e-19
DICPCG:  Solving for p_rgh, Initial residual = 0.0129999, Final residual = 0.000635304, No Iterations 11
time step continuity errors : sum local = 4.88139e-07, global = -3.67916e-20, cumulative = 1.74766e-19
DICPCG:  Solving for p_rgh, Initial residual = 0.00201691, Final residual = 9.95315e-08, No Iterations 99
time step continuity errors : sum local = 7.54177e-11, global = 3.26459e-20, cumulative = 2.07412e-19
ExecutionTime = 3.75 s  ClockTime = 4 s

Courant Number mean: 0.057044 max: 0.483868
Interface Courant Number mean: 0.00274222 max: 0.428318
deltaT = 0.00147492
Time = 0.0424043

PIMPLE: iteration 1
MULES: Solving for alpha.water
Phase-1 volume fraction = 0.25  Min(alpha.water) = 0  Max(alpha.water) = 1
MULES: Solving for alpha.water
Phase-1 volume fraction = 0.25  Min(alpha.water) = 0  Max(alpha.water) = 1
DICPCG:  Solving for p_rgh, Initial residual = 0.0335493, Final residual = 0.0016389, No Iterations 7
time step continuity errors : sum local = 1.2956e-06, global = 2.19573e-21, cumulative = 2.09608e-19
DICPCG:  Solving for p_rgh, Initial residual = 0.0132262, Final residual = 0.000569135, No Iterations 11
time step continuity errors : sum local = 4.55146e-07, global = -5.93732e-20, cumulative = 1.50234e-19
DICPCG:  Solving for p_rgh, Initial residual = 0.0020166, Final residual = 8.28637e-08, No Iterations 99
time step continuity errors : sum local = 6.36805e-11, global = 1.82672e-20, cumulative = 1.68502e-19
ExecutionTime = 3.84 s  ClockTime = 4 s

Courant Number mean: 0.0581323 max: 0.481942
Interface Courant Number mean: 0.00282951 max: 0.430869
deltaT = 0.00152955
Time = 0.0439338

PIMPLE: iteration 1
MULES: Solving for alpha.water
Phase-1 volume fraction = 0.25  Min(alpha.water) = 0  Max(alpha.water) = 1
MULES: Solving for alpha.water
Phase-1 volume fraction = 0.25  Min(alpha.water) = 0  Max(alpha.water) = 1
DICPCG:  Solving for p_rgh, Initial residual = 0.0357448, Final residual = 0.00163446, No Iterations 7
time step continuity errors : sum local = 1.34547e-06, global = 8.87935e-21, cumulative = 1.77381e-19
DICPCG:  Solving for p_rgh, Initial residual = 0.0135963, Final residual = 0.000604412, No Iterations 12
time step continuity errors : sum local = 4.93734e-07, global = 6.35595e-20, cumulative = 2.4094e-19
DICPCG:  Solving for p_rgh, Initial residual = 0.00209631, Final residual = 8.05276e-08, No Iterations 99
time step continuity errors : sum local = 6.48288e-11, global = -4.12231e-20, cumulative = 1.99717e-19
ExecutionTime = 3.94 s  ClockTime = 4 s

Courant Number mean: 0.0603847 max: 0.489137
Interface Courant Number mean: 0.00294067 max: 0.440267
deltaT = 0.00155897
Time = 0.0454928

PIMPLE: iteration 1
MULES: Solving for alpha.water
Phase-1 volume fraction = 0.25  Min(alpha.water) = 0  Max(alpha.water) = 1
MULES: Solving for alpha.water
Phase-1 volume fraction = 0.25  Min(alpha.water) = 0  Max(alpha.water) = 1
DICPCG:  Solving for p_rgh, Initial residual = 0.033474, Final residual = 0.00142941, No Iterations 5
time step continuity errors : sum local = 1.19136e-06, global = -4.37175e-21, cumulative = 1.95346e-19
DICPCG:  Solving for p_rgh, Initial residual = 0.0135429, Final residual = 0.00065602, No Iterations 7
time step continuity errors : sum local = 5.40235e-07, global = -7.36779e-21, cumulative = 1.87978e-19
DICPCG:  Solving for p_rgh, Initial residual = 0.00209809, Final residual = 9.09165e-08, No Iterations 100
time step continuity errors : sum local = 7.4676e-11, global = 4.2657e-20, cumulative = 2.30635e-19
ExecutionTime = 4.04 s  ClockTime = 4 s

Courant Number mean: 0.0616567 max: 0.488087
Interface Courant Number mean: 0.00299816 max: 0.441018
deltaT = 0.00159014
Time = 0.0470829

PIMPLE: iteration 1
MULES: Solving for alpha.water
Phase-1 volume fraction = 0.25  Min(alpha.water) = 0  Max(alpha.water) = 1
MULES: Solving for alpha.water
Phase-1 volume fraction = 0.25  Min(alpha.water) = 0  Max(alpha.water) = 1
DICPCG:  Solving for p_rgh, Initial residual = 0.0361415, Final residual = 0.00173604, No Iterations 6
time step continuity errors : sum local = 1.48014e-06, global = 1.22364e-19, cumulative = 3.52999e-19
DICPCG:  Solving for p_rgh, Initial residual = 0.0137659, Final residual = 0.000567314, No Iterations 12
time step continuity errors : sum local = 4.88087e-07, global = -9.88611e-20, cumulative = 2.54138e-19
DICPCG:  Solving for p_rgh, Initial residual = 0.00212071, Final residual = 8.73377e-08, No Iterations 100
time step continuity errors : sum local = 7.27806e-11, global = -4.59616e-20, cumulative = 2.08176e-19
ExecutionTime = 4.14 s  ClockTime = 4 s

Courant Number mean: 0.0630218 max: 0.48755
Interface Courant Number mean: 0.00317165 max: 0.440567
deltaT = 0.00162327
Time = 0.0487062

PIMPLE: iteration 1
MULES: Solving for alpha.water
Phase-1 volume fraction = 0.25  Min(alpha.water) = 0  Max(alpha.water) = 1
MULES: Solving for alpha.water
Phase-1 volume fraction = 0.25  Min(alpha.water) = 0  Max(alpha.water) = 1
DICPCG:  Solving for p_rgh, Initial residual = 0.0355568, Final residual = 0.00174449, No Iterations 7
time step continuity errors : sum local = 1.51542e-06, global = -7.02976e-20, cumulative = 1.37879e-19
DICPCG:  Solving for p_rgh, Initial residual = 0.014258, Final residual = 0.000683013, No Iterations 13
time step continuity errors : sum local = 5.92826e-07, global = 1.45766e-20, cumulative = 1.52455e-19
DICPCG:  Solving for p_rgh, Initial residual = 0.00226216, Final residual = 9.74855e-08, No Iterations 102
time step continuity errors : sum local = 8.3267e-11, global = 4.60776e-20, cumulative = 1.98533e-19
ExecutionTime = 4.24 s  ClockTime = 4 s

Courant Number mean: 0.0644752 max: 0.487547
Interface Courant Number mean: 0.00333274 max: 0.439248
deltaT = 0.00165856
Time = 0.0503648

PIMPLE: iteration 1
MULES: Solving for alpha.water
Phase-1 volume fraction = 0.25  Min(alpha.water) = 0  Max(alpha.water) = 1
MULES: Solving for alpha.water
Phase-1 volume fraction = 0.25  Min(alpha.water) = 0  Max(alpha.water) = 1
DICPCG:  Solving for p_rgh, Initial residual = 0.0352163, Final residual = 0.00157629, No Iterations 6
time step continuity errors : sum local = 1.40532e-06, global = 2.203e-20, cumulative = 2.20563e-19
DICPCG:  Solving for p_rgh, Initial residual = 0.0144366, Final residual = 0.000642226, No Iterations 12
time step continuity errors : sum local = 5.65389e-07, global = 3.77047e-20, cumulative = 2.58268e-19
DICPCG:  Solving for p_rgh, Initial residual = 0.00225903, Final residual = 9.44027e-08, No Iterations 100
time step continuity errors : sum local = 8.27129e-11, global = 1.8649e-21, cumulative = 2.60133e-19
ExecutionTime = 4.34 s  ClockTime = 4 s

Courant Number mean: 0.0660209 max: 0.488158
Interface Courant Number mean: 0.00353537 max: 0.43732
deltaT = 0.00169626
Time = 0.052061

PIMPLE: iteration 1
MULES: Solving for alpha.water
Phase-1 volume fraction = 0.25  Min(alpha.water) = 0  Max(alpha.water) = 1
MULES: Solving for alpha.water
Phase-1 volume fraction = 0.25  Min(alpha.water) = 0  Max(alpha.water) = 1
DICPCG:  Solving for p_rgh, Initial residual = 0.0363242, Final residual = 0.00180424, No Iterations 6
time step continuity errors : sum local = 1.65333e-06, global = 1.95777e-20, cumulative = 2.7971e-19
DICPCG:  Solving for p_rgh, Initial residual = 0.0147756, Final residual = 0.000577515, No Iterations 13
time step continuity errors : sum local = 5.27789e-07, global = -3.55663e-20, cumulative = 2.44144e-19
DICPCG:  Solving for p_rgh, Initial residual = 0.00226604, Final residual = 6.52945e-08, No Iterations 102
time step continuity errors : sum local = 5.89423e-11, global = -5.34384e-20, cumulative = 1.90706e-19
ExecutionTime = 4.44 s  ClockTime = 4 s

Courant Number mean: 0.0676663 max: 0.489736
Interface Courant Number mean: 0.00351352 max: 0.434991
deltaT = 0.00169626
Time = 0.0537573

PIMPLE: iteration 1
MULES: Solving for alpha.water
Phase-1 volume fraction = 0.25  Min(alpha.water) = 0  Max(alpha.water) = 1
MULES: Solving for alpha.water
Phase-1 volume fraction = 0.25  Min(alpha.water) = 0  Max(alpha.water) = 1
DICPCG:  Solving for p_rgh, Initial residual = 0.037467, Final residual = 0.00181627, No Iterations 6
time step continuity errors : sum local = 1.64281e-06, global = -8.70181e-20, cumulative = 1.03687e-19
DICPCG:  Solving for p_rgh, Initial residual = 0.015023, Final residual = 0.00065117, No Iterations 11
time step continuity errors : sum local = 5.91008e-07, global = -5.56516e-20, cumulative = 4.80359e-20
DICPCG:  Solving for p_rgh, Initial residual = 0.00221612, Final residual = 8.5452e-08, No Iterations 99
time step continuity errors : sum local = 7.5963e-11, global = -3.91895e-20, cumulative = 8.84641e-21
ExecutionTime = 4.54 s  ClockTime = 4 s

Courant Number mean: 0.0678164 max: 0.481478
Interface Courant Number mean: 0.00372605 max: 0.424409
deltaT = 0.00173763
Time = 0.0554949

PIMPLE: iteration 1
MULES: Solving for alpha.water
Phase-1 volume fraction = 0.25  Min(alpha.water) = -1.92563e-15  Max(alpha.water) = 1
MULES: Solving for alpha.water
Phase-1 volume fraction = 0.25  Min(alpha.water) = -1.47991e-15  Max(alpha.water) = 1
DICPCG:  Solving for p_rgh, Initial residual = 0.0417192, Final residual = 0.00166563, No Iterations 8
time step continuity errors : sum local = 1.5448e-06, global = -1.99525e-20, cumulative = -1.11061e-20
DICPCG:  Solving for p_rgh, Initial residual = 0.0155988, Final residual = 0.000647803, No Iterations 12
time step continuity errors : sum local = 5.91892e-07, global = 5.33637e-20, cumulative = 4.22576e-20
DICPCG:  Solving for p_rgh, Initial residual = 0.0023451, Final residual = 9.39252e-08, No Iterations 100
time step continuity errors : sum local = 8.55887e-11, global = 2.0733e-20, cumulative = 6.29906e-20
ExecutionTime = 4.64 s  ClockTime = 5 s

Courant Number mean: 0.0696194 max: 0.484388
Interface Courant Number mean: 0.00392894 max: 0.434814
deltaT = 0.00178218
Time = 0.0572771

PIMPLE: iteration 1
MULES: Solving for alpha.water
Phase-1 volume fraction = 0.25  Min(alpha.water) = -1.13647e-15  Max(alpha.water) = 1
MULES: Solving for alpha.water
Phase-1 volume fraction = 0.25  Min(alpha.water) = -8.72614e-16  Max(alpha.water) = 1
DICPCG:  Solving for p_rgh, Initial residual = 0.0385949, Final residual = 0.00185782, No Iterations 6
time step continuity errors : sum local = 1.77364e-06, global = -3.22486e-20, cumulative = 3.07419e-20
DICPCG:  Solving for p_rgh, Initial residual = 0.0159338, Final residual = 0.00072618, No Iterations 11
time step continuity errors : sum local = 6.87758e-07, global = 2.75184e-20, cumulative = 5.82603e-20
DICPCG:  Solving for p_rgh, Initial residual = 0.00238677, Final residual = 6.59435e-08, No Iterations 100
time step continuity errors : sum local = 6.17967e-11, global = -1.00802e-19, cumulative = -4.25412e-20
ExecutionTime = 4.73 s  ClockTime = 5 s

Courant Number mean: 0.0715584 max: 0.488001
Interface Courant Number mean: 0.00388094 max: 0.444325
deltaT = 0.00178218
Time = 0.0590593

PIMPLE: iteration 1
MULES: Solving for alpha.water
Phase-1 volume fraction = 0.25  Min(alpha.water) = -6.72143e-16  Max(alpha.water) = 1
MULES: Solving for alpha.water
Phase-1 volume fraction = 0.25  Min(alpha.water) = -5.18805e-16  Max(alpha.water) = 1
DICPCG:  Solving for p_rgh, Initial residual = 0.0374938, Final residual = 0.00150215, No Iterations 6
time step continuity errors : sum local = 1.42311e-06, global = -9.38512e-20, cumulative = -1.36392e-19
DICPCG:  Solving for p_rgh, Initial residual = 0.0156642, Final residual = 0.000668715, No Iterations 11
time step continuity errors : sum local = 6.4564e-07, global = 1.54456e-19, cumulative = 1.80636e-20
DICPCG:  Solving for p_rgh, Initial residual = 0.0023099, Final residual = 8.90143e-08, No Iterations 96
time step continuity errors : sum local = 8.32517e-11, global = 1.39615e-20, cumulative = 3.20251e-20
ExecutionTime = 4.83 s  ClockTime = 5 s

Courant Number mean: 0.0717195 max: 0.479795
Interface Courant Number mean: 0.00391231 max: 0.441194
deltaT = 0.00183169
Time = 0.0608909

PIMPLE: iteration 1
MULES: Solving for alpha.water
Phase-1 volume fraction = 0.25  Min(alpha.water) = -3.97204e-16  Max(alpha.water) = 1
MULES: Solving for alpha.water
Phase-1 volume fraction = 0.25  Min(alpha.water) = -3.02966e-16  Max(alpha.water) = 1
DICPCG:  Solving for p_rgh, Initial residual = 0.0408927, Final residual = 0.00180483, No Iterations 8
time step continuity errors : sum local = 1.76119e-06, global = 1.32798e-19, cumulative = 1.64823e-19
DICPCG:  Solving for p_rgh, Initial residual = 0.016147, Final residual = 0.00074921, No Iterations 8
time step continuity errors : sum local = 7.16287e-07, global = 1.07889e-20, cumulative = 1.75612e-19
DICPCG:  Solving for p_rgh, Initial residual = 0.00236759, Final residual = 9.79321e-08, No Iterations 100
time step continuity errors : sum local = 9.33433e-11, global = -2.88736e-20, cumulative = 1.46739e-19
ExecutionTime = 4.93 s  ClockTime = 5 s

Courant Number mean: 0.073888 max: 0.484976
Interface Courant Number mean: 0.004166 max: 0.448409
deltaT = 0.00188556
Time = 0.0627765

PIMPLE: iteration 1
MULES: Solving for alpha.water
Phase-1 volume fraction = 0.25  Min(alpha.water) = -2.30802e-16  Max(alpha.water) = 1
MULES: Solving for alpha.water
Phase-1 volume fraction = 0.25  Min(alpha.water) = -1.77719e-16  Max(alpha.water) = 1
DICPCG:  Solving for p_rgh, Initial residual = 0.0416835, Final residual = 0.00197784, No Iterations 7
time step continuity errors : sum local = 1.99208e-06, global = -4.89884e-20, cumulative = 9.77503e-20
DICPCG:  Solving for p_rgh, Initial residual = 0.0164867, Final residual = 0.000702898, No Iterations 11
time step continuity errors : sum local = 7.0268e-07, global = -7.89144e-21, cumulative = 8.98588e-20
DICPCG:  Solving for p_rgh, Initial residual = 0.00250842, Final residual = 8.52365e-08, No Iterations 96
time step continuity errors : sum local = 8.37458e-11, global = -9.96355e-20, cumulative = -9.77664e-21
ExecutionTime = 5.03 s  ClockTime = 5 s

Courant Number mean: 0.076275 max: 0.491651
Interface Courant Number mean: 0.00410507 max: 0.45462
deltaT = 0.00188556
Time = 0.0646621

PIMPLE: iteration 1
MULES: Solving for alpha.water
Phase-1 volume fraction = 0.25  Min(alpha.water) = -1.34664e-16  Max(alpha.water) = 1
MULES: Solving for alpha.water
Phase-1 volume fraction = 0.25  Min(alpha.water) = -1.05359e-16  Max(alpha.water) = 1
DICPCG:  Solving for p_rgh, Initial residual = 0.0418557, Final residual = 0.001982, No Iterations 6
time step continuity errors : sum local = 1.948e-06, global = 4.77038e-20, cumulative = 3.79272e-20
DICPCG:  Solving for p_rgh, Initial residual = 0.0169431, Final residual = 0.000748596, No Iterations 7
time step continuity errors : sum local = 7.24151e-07, global = -3.26625e-20, cumulative = 5.26465e-21
DICPCG:  Solving for p_rgh, Initial residual = 0.00249318, Final residual = 9.71209e-08, No Iterations 101
time step continuity errors : sum local = 9.40632e-11, global = 1.7171e-20, cumulative = 2.24356e-20
ExecutionTime = 5.13 s  ClockTime = 5 s

Courant Number mean: 0.0765023 max: 0.485224
Interface Courant Number mean: 0.00431663 max: 0.446542
deltaT = 0.00188556
Time = 0.0665476

PIMPLE: iteration 1
MULES: Solving for alpha.water
Phase-1 volume fraction = 0.25  Min(alpha.water) = -8.14659e-17  Max(alpha.water) = 1
MULES: Solving for alpha.water
Phase-1 volume fraction = 0.25  Min(alpha.water) = -6.1574e-17  Max(alpha.water) = 1
DICPCG:  Solving for p_rgh, Initial residual = 0.0375619, Final residual = 0.00175994, No Iterations 7
time step continuity errors : sum local = 1.71028e-06, global = 3.65218e-20, cumulative = 5.89574e-20
DICPCG:  Solving for p_rgh, Initial residual = 0.0164045, Final residual = 0.000815571, No Iterations 7
time step continuity errors : sum local = 7.84072e-07, global = -2.41402e-21, cumulative = 5.65434e-20
DICPCG:  Solving for p_rgh, Initial residual = 0.0025089, Final residual = 9.30159e-08, No Iterations 101
time step continuity errors : sum local = 8.89137e-11, global = 1.22595e-19, cumulative = 1.79139e-19
ExecutionTime = 5.22 s  ClockTime = 5 s

Courant Number mean: 0.0767367 max: 0.479238
Interface Courant Number mean: 0.00448322 max: 0.437529
deltaT = 0.00194841
Time = 0.068496

PIMPLE: iteration 1
MULES: Solving for alpha.water
Phase-1 volume fraction = 0.25  Min(alpha.water) = -6.49757e-09  Max(alpha.water) = 1
MULES: Solving for alpha.water
Phase-1 volume fraction = 0.25  Min(alpha.water) = -4.09007e-10  Max(alpha.water) = 1
DICPCG:  Solving for p_rgh, Initial residual = 0.0427016, Final residual = 0.00186737, No Iterations 8
time step continuity errors : sum local = 1.8845e-06, global = -1.24532e-20, cumulative = 1.66685e-19
DICPCG:  Solving for p_rgh, Initial residual = 0.0171331, Final residual = 0.000726347, No Iterations 13
time step continuity errors : sum local = 7.32068e-07, global = 5.59798e-20, cumulative = 2.22665e-19
DICPCG:  Solving for p_rgh, Initial residual = 0.00262956, Final residual = 8.21773e-08, No Iterations 102
time step continuity errors : sum local = 8.14179e-11, global = 3.54534e-20, cumulative = 2.58119e-19
ExecutionTime = 5.32 s  ClockTime = 5 s

Courant Number mean: 0.0795348 max: 0.48914
Interface Courant Number mean: 0.00459172 max: 0.441659
deltaT = 0.00194841
Time = 0.0704445

PIMPLE: iteration 1
MULES: Solving for alpha.water
Phase-1 volume fraction = 0.25  Min(alpha.water) = -3.33084e-10  Max(alpha.water) = 1
MULES: Solving for alpha.water
Phase-1 volume fraction = 0.25  Min(alpha.water) = -2.66211e-10  Max(alpha.water) = 1
DICPCG:  Solving for p_rgh, Initial residual = 0.0421212, Final residual = 0.00205803, No Iterations 6
time step continuity errors : sum local = 2.05907e-06, global = 3.40712e-20, cumulative = 2.9219e-19
DICPCG:  Solving for p_rgh, Initial residual = 0.0172798, Final residual = 0.000849283, No Iterations 11
time step continuity errors : sum local = 8.57944e-07, global = -3.29381e-20, cumulative = 2.59252e-19
DICPCG:  Solving for p_rgh, Initial residual = 0.00261063, Final residual = 9.70483e-08, No Iterations 99
time step continuity errors : sum local = 9.558e-11, global = -1.21099e-20, cumulative = 2.47142e-19
ExecutionTime = 5.42 s  ClockTime = 5 s

Courant Number mean: 0.0797769 max: 0.483501
Interface Courant Number mean: 0.00463945 max: 0.430605
deltaT = 0.00194841
Time = 0.0723929

PIMPLE: iteration 1
MULES: Solving for alpha.water
Phase-1 volume fraction = 0.25  Min(alpha.water) = -2.06622e-10  Max(alpha.water) = 1
MULES: Solving for alpha.water
Phase-1 volume fraction = 0.25  Min(alpha.water) = -1.54006e-10  Max(alpha.water) = 1
DICPCG:  Solving for p_rgh, Initial residual = 0.0418553, Final residual = 0.00186941, No Iterations 7
time step continuity errors : sum local = 1.8469e-06, global = -2.29693e-20, cumulative = 2.24173e-19
DICPCG:  Solving for p_rgh, Initial residual = 0.0167381, Final residual = 0.000778625, No Iterations 12
time step continuity errors : sum local = 7.58877e-07, global = 5.22459e-20, cumulative = 2.76419e-19
DICPCG:  Solving for p_rgh, Initial residual = 0.00252157, Final residual = 6.7668e-08, No Iterations 102
time step continuity errors : sum local = 6.62771e-11, global = -5.61261e-21, cumulative = 2.70806e-19
ExecutionTime = 5.52 s  ClockTime = 5 s

Courant Number mean: 0.0800187 max: 0.478157
Interface Courant Number mean: 0.00480898 max: 0.432069
deltaT = 0.00202335
Time = 0.0744162

PIMPLE: iteration 1
MULES: Solving for alpha.water
Phase-1 volume fraction = 0.25  Min(alpha.water) = -1.04503e-10  Max(alpha.water) = 1
MULES: Solving for alpha.water
Phase-1 volume fraction = 0.25  Min(alpha.water) = -5.87982e-11  Max(alpha.water) = 1
DICPCG:  Solving for p_rgh, Initial residual = 0.045637, Final residual = 0.00214791, No Iterations 8
time step continuity errors : sum local = 2.24281e-06, global = -6.01997e-20, cumulative = 2.10606e-19
DICPCG:  Solving for p_rgh, Initial residual = 0.0173173, Final residual = 0.000864946, No Iterations 11
time step continuity errors : sum local = 8.93271e-07, global = 1.07216e-20, cumulative = 2.21328e-19
DICPCG:  Solving for p_rgh, Initial residual = 0.00266896, Final residual = 9.56959e-08, No Iterations 100
time step continuity errors : sum local = 9.88812e-11, global = 5.81914e-20, cumulative = 2.79519e-19
ExecutionTime = 5.62 s  ClockTime = 6 s

Courant Number mean: 0.0833458 max: 0.490978
Interface Courant Number mean: 0.00551051 max: 0.439308
deltaT = 0.00202335
Time = 0.0764396

PIMPLE: iteration 1
MULES: Solving for alpha.water
Phase-1 volume fraction = 0.25  Min(alpha.water) = -3.25629e-17  Max(alpha.water) = 1
MULES: Solving for alpha.water
Phase-1 volume fraction = 0.25  Min(alpha.water) = -2.43036e-17  Max(alpha.water) = 1
DICPCG:  Solving for p_rgh, Initial residual = 0.0440054, Final residual = 0.00210805, No Iterations 7
time step continuity errors : sum local = 2.20882e-06, global = -7.58604e-20, cumulative = 2.03659e-19
DICPCG:  Solving for p_rgh, Initial residual = 0.0167803, Final residual = 0.000727145, No Iterations 12
time step continuity errors : sum local = 7.72009e-07, global = 4.85423e-20, cumulative = 2.52201e-19
DICPCG:  Solving for p_rgh, Initial residual = 0.002495, Final residual = 9.76802e-08, No Iterations 101
time step continuity errors : sum local = 1.01443e-10, global = 2.93209e-20, cumulative = 2.81522e-19
ExecutionTime = 5.72 s  ClockTime = 6 s

Courant Number mean: 0.0835906 max: 0.485658
Interface Courant Number mean: 0.00582709 max: 0.42979
deltaT = 0.00202335
Time = 0.0784629

PIMPLE: iteration 1
MULES: Solving for alpha.water
Phase-1 volume fraction = 0.25  Min(alpha.water) = -8.09793e-08  Max(alpha.water) = 1
MULES: Solving for alpha.water
Phase-1 volume fraction = 0.25  Min(alpha.water) = -6.79601e-08  Max(alpha.water) = 1
DICPCG:  Solving for p_rgh, Initial residual = 0.0430851, Final residual = 0.00203146, No Iterations 7
time step continuity errors : sum local = 2.13723e-06, global = 4.96923e-20, cumulative = 3.31214e-19
DICPCG:  Solving for p_rgh, Initial residual = 0.0163006, Final residual = 0.000747442, No Iterations 8
time step continuity errors : sum local = 7.80991e-07, global = 8.21284e-20, cumulative = 4.13343e-19
DICPCG:  Solving for p_rgh, Initial residual = 0.002381, Final residual = 8.17619e-08, No Iterations 101
time step continuity errors : sum local = 8.59439e-11, global = -7.39002e-22, cumulative = 4.12604e-19
ExecutionTime = 5.82 s  ClockTime = 6 s

Courant Number mean: 0.0838434 max: 0.480444
Interface Courant Number mean: 0.0055805 max: 0.424548
deltaT = 0.00202335
Time = 0.0804863

PIMPLE: iteration 1
MULES: Solving for alpha.water
Phase-1 volume fraction = 0.25  Min(alpha.water) = -5.68842e-08  Max(alpha.water) = 1
MULES: Solving for alpha.water
Phase-1 volume fraction = 0.25  Min(alpha.water) = -4.76115e-08  Max(alpha.water) = 1
DICPCG:  Solving for p_rgh, Initial residual = 0.0415493, Final residual = 0.0018501, No Iterations 7
time step continuity errors : sum local = 1.95378e-06, global = -4.55063e-22, cumulative = 4.12149e-19
DICPCG:  Solving for p_rgh, Initial residual = 0.0160737, Final residual = 0.000763263, No Iterations 8
time step continuity errors : sum local = 8.00352e-07, global = -7.46899e-20, cumulative = 3.37459e-19
DICPCG:  Solving for p_rgh, Initial residual = 0.00235493, Final residual = 9.82613e-08, No Iterations 100
time step continuity errors : sum local = 1.03882e-10, global = -5.37607e-20, cumulative = 2.83698e-19
ExecutionTime = 5.92 s  ClockTime = 6 s

Courant Number mean: 0.0841034 max: 0.47525
Interface Courant Number mean: 0.00506664 max: 0.41922
deltaT = 0.0021197
Time = 0.082606

PIMPLE: iteration 1
MULES: Solving for alpha.water
Phase-1 volume fraction = 0.25  Min(alpha.water) = -3.9368e-08  Max(alpha.water) = 1
MULES: Solving for alpha.water
Phase-1 volume fraction = 0.25  Min(alpha.water) = -3.25494e-08  Max(alpha.water) = 1
DICPCG:  Solving for p_rgh, Initial residual = 0.0452159, Final residual = 0.0018936, No Iterations 8
time step continuity errors : sum local = 2.17755e-06, global = 8.80672e-20, cumulative = 3.71765e-19
DICPCG:  Solving for p_rgh, Initial residual = 0.0165024, Final residual = 0.000821105, No Iterations 7
time step continuity errors : sum local = 9.41979e-07, global = 2.36943e-20, cumulative = 3.9546e-19
DICPCG:  Solving for p_rgh, Initial residual = 0.00259659, Final residual = 9.9032e-08, No Iterations 100
time step continuity errors : sum local = 1.13413e-10, global = -8.53043e-20, cumulative = 3.10155e-19
ExecutionTime = 6.02 s  ClockTime = 6 s

Courant Number mean: 0.0883904 max: 0.492355
Interface Courant Number mean: 0.00538439 max: 0.432033
deltaT = 0.0021197
Time = 0.0847257

PIMPLE: iteration 1
MULES: Solving for alpha.water
Phase-1 volume fraction = 0.25  Min(alpha.water) = -2.68309e-08  Max(alpha.water) = 1
MULES: Solving for alpha.water
Phase-1 volume fraction = 0.25  Min(alpha.water) = -2.21143e-08  Max(alpha.water) = 1
DICPCG:  Solving for p_rgh, Initial residual = 0.0451639, Final residual = 0.00213656, No Iterations 6
time step continuity errors : sum local = 2.47371e-06, global = -8.92119e-20, cumulative = 2.20944e-19
DICPCG:  Solving for p_rgh, Initial residual = 0.0159979, Final residual = 0.000686597, No Iterations 11
time step continuity errors : sum local = 8.14392e-07, global = 1.0941e-19, cumulative = 3.30353e-19
DICPCG:  Solving for p_rgh, Initial residual = 0.00241215, Final residual = 9.45399e-08, No Iterations 100
time step continuity errors : sum local = 1.09002e-10, global = -8.15468e-20, cumulative = 2.48806e-19
ExecutionTime = 6.11 s  ClockTime = 6 s

Courant Number mean: 0.0886824 max: 0.488351
Interface Courant Number mean: 0.00590451 max: 0.424596
deltaT = 0.0021197
Time = 0.0868454

PIMPLE: iteration 1
MULES: Solving for alpha.water
Phase-1 volume fraction = 0.25  Min(alpha.water) = -1.81697e-08  Max(alpha.water) = 1
MULES: Solving for alpha.water
Phase-1 volume fraction = 0.25  Min(alpha.water) = -1.49253e-08  Max(alpha.water) = 1
DICPCG:  Solving for p_rgh, Initial residual = 0.0415464, Final residual = 0.0016909, No Iterations 8
time step continuity errors : sum local = 1.98193e-06, global = 6.07735e-21, cumulative = 2.54884e-19
DICPCG:  Solving for p_rgh, Initial residual = 0.0156313, Final residual = 0.000730106, No Iterations 11
time step continuity errors : sum local = 8.55301e-07, global = 4.16239e-20, cumulative = 2.96508e-19
DICPCG:  Solving for p_rgh, Initial residual = 0.00241993, Final residual = 9.39648e-08, No Iterations 98
time step continuity errors : sum local = 1.08668e-10, global = 2.96539e-20, cumulative = 3.26162e-19
ExecutionTime = 6.21 s  ClockTime = 6 s

Courant Number mean: 0.088988 max: 0.484555
Interface Courant Number mean: 0.00623182 max: 0.417683
deltaT = 0.0021197
Time = 0.0889651

PIMPLE: iteration 1
MULES: Solving for alpha.water
Phase-1 volume fraction = 0.25  Min(alpha.water) = -1.22212e-08  Max(alpha.water) = 1
MULES: Solving for alpha.water
Phase-1 volume fraction = 0.25  Min(alpha.water) = -1.00025e-08  Max(alpha.water) = 1
DICPCG:  Solving for p_rgh, Initial residual = 0.0437953, Final residual = 0.00203767, No Iterations 6
time step continuity errors : sum local = 2.38071e-06, global = 2.18744e-20, cumulative = 3.48036e-19
DICPCG:  Solving for p_rgh, Initial residual = 0.0158551, Final residual = 0.000787893, No Iterations 10
time step continuity errors : sum local = 9.26439e-07, global = -7.03306e-21, cumulative = 3.41003e-19
DICPCG:  Solving for p_rgh, Initial residual = 0.00245059, Final residual = 9.19309e-08, No Iterations 99
time step continuity errors : sum local = 1.0588e-10, global = 5.99158e-22, cumulative = 3.41602e-19
ExecutionTime = 6.31 s  ClockTime = 6 s

Courant Number mean: 0.0892948 max: 0.480484
Interface Courant Number mean: 0.00564885 max: 0.413607
deltaT = 0.0021197
Time = 0.0910848

PIMPLE: iteration 1
MULES: Solving for alpha.water
Phase-1 volume fraction = 0.25  Min(alpha.water) = -8.083e-09  Max(alpha.water) = 1
MULES: Solving for alpha.water
Phase-1 volume fraction = 0.25  Min(alpha.water) = -6.53957e-09  Max(alpha.water) = 1
DICPCG:  Solving for p_rgh, Initial residual = 0.041583, Final residual = 0.00180607, No Iterations 7
time step continuity errors : sum local = 2.08818e-06, global = 6.53797e-20, cumulative = 4.06982e-19
DICPCG:  Solving for p_rgh, Initial residual = 0.0157178, Final residual = 0.000671538, No Iterations 8
time step continuity errors : sum local = 7.74769e-07, global = -2.65165e-20, cumulative = 3.80465e-19
DICPCG:  Solving for p_rgh, Initial residual = 0.0022681, Final residual = 9.76818e-08, No Iterations 101
time step continuity errors : sum local = 1.12577e-10, global = 1.01212e-19, cumulative = 4.81677e-19
ExecutionTime = 6.41 s  ClockTime = 6 s

Courant Number mean: 0.0895997 max: 0.476127
Interface Courant Number mean: 0.00554087 max: 0.416795
deltaT = 0.0021197
Time = 0.0932045

PIMPLE: iteration 1
MULES: Solving for alpha.water
Phase-1 volume fraction = 0.25  Min(alpha.water) = -5.22443e-09  Max(alpha.water) = 1
MULES: Solving for alpha.water
Phase-1 volume fraction = 0.25  Min(alpha.water) = -4.15373e-09  Max(alpha.water) = 1
DICPCG:  Solving for p_rgh, Initial residual = 0.0424292, Final residual = 0.00189935, No Iterations 7
time step continuity errors : sum local = 2.21645e-06, global = -2.48051e-20, cumulative = 4.56872e-19
DICPCG:  Solving for p_rgh, Initial residual = 0.0154565, Final residual = 0.000648215, No Iterations 12
time step continuity errors : sum local = 7.6521e-07, global = -3.83496e-20, cumulative = 4.18523e-19
DICPCG:  Solving for p_rgh, Initial residual = 0.00231884, Final residual = 9.52704e-08, No Iterations 99
time step continuity errors : sum local = 1.10147e-10, global = -1.6187e-21, cumulative = 4.16904e-19
ExecutionTime = 6.51 s  ClockTime = 6 s

Courant Number mean: 0.0898959 max: 0.471521
Interface Courant Number mean: 0.00599721 max: 0.412513
deltaT = 0.0021197
Time = 0.0953242

PIMPLE: iteration 1
MULES: Solving for alpha.water
Phase-1 volume fraction = 0.25  Min(alpha.water) = -3.68279e-09  Max(alpha.water) = 1
MULES: Solving for alpha.water
Phase-1 volume fraction = 0.25  Min(alpha.water) = -3.42838e-09  Max(alpha.water) = 1
DICPCG:  Solving for p_rgh, Initial residual = 0.0426878, Final residual = 0.00173323, No Iterations 8
time step continuity errors : sum local = 2.01512e-06, global = 1.28101e-19, cumulative = 5.45005e-19
DICPCG:  Solving for p_rgh, Initial residual = 0.0152043, Final residual = 0.000716258, No Iterations 11
time step continuity errors : sum local = 8.31766e-07, global = -3.31753e-20, cumulative = 5.1183e-19
DICPCG:  Solving for p_rgh, Initial residual = 0.00236699, Final residual = 9.77984e-08, No Iterations 98
time step continuity errors : sum local = 1.12727e-10, global = -1.93531e-20, cumulative = 4.92477e-19
ExecutionTime = 6.61 s  ClockTime = 7 s

Courant Number mean: 0.0901752 max: 0.46668
Interface Courant Number mean: 0.00637106 max: 0.407331
deltaT = 0.0021197
Time = 0.0974439

PIMPLE: iteration 1
MULES: Solving for alpha.water
Phase-1 volume fraction = 0.25  Min(alpha.water) = -3.16976e-09  Max(alpha.water) = 1
MULES: Solving for alpha.water
Phase-1 volume fraction = 0.25  Min(alpha.water) = -2.91198e-09  Max(alpha.water) = 1
DICPCG:  Solving for p_rgh, Initial residual = 0.0421381, Final residual = 0.00188983, No Iterations 7
time step continuity errors : sum local = 2.20805e-06, global = 6.60694e-20, cumulative = 5.58546e-19
DICPCG:  Solving for p_rgh, Initial residual = 0.0153153, Final residual = 0.000663985, No Iterations 12
time step continuity errors : sum local = 7.81863e-07, global = -6.21034e-20, cumulative = 4.96443e-19
DICPCG:  Solving for p_rgh, Initial residual = 0.00234443, Final residual = 9.86702e-08, No Iterations 100
time step continuity errors : sum local = 1.12901e-10, global = -7.26968e-21, cumulative = 4.89173e-19
ExecutionTime = 6.71 s  ClockTime = 7 s

Courant Number mean: 0.0904567 max: 0.461609
Interface Courant Number mean: 0.0066872 max: 0.401925
deltaT = 0.0021197
Time = 0.0995636

PIMPLE: iteration 1
MULES: Solving for alpha.water
Phase-1 volume fraction = 0.25  Min(alpha.water) = -2.65396e-09  Max(alpha.water) = 1
MULES: Solving for alpha.water
Phase-1 volume fraction = 0.25  Min(alpha.water) = -2.40475e-09  Max(alpha.water) = 1
DICPCG:  Solving for p_rgh, Initial residual = 0.0410919, Final residual = 0.00202696, No Iterations 7
time step continuity errors : sum local = 2.32541e-06, global = 1.3892e-19, cumulative = 6.28093e-19
DICPCG:  Solving for p_rgh, Initial residual = 0.0152434, Final residual = 0.000723497, No Iterations 10
time step continuity errors : sum local = 8.26779e-07, global = 1.75579e-19, cumulative = 8.03672e-19
DICPCG:  Solving for p_rgh, Initial residual = 0.00235112, Final residual = 8.75152e-08, No Iterations 100
time step continuity errors : sum local = 9.97499e-11, global = 7.26594e-20, cumulative = 8.76332e-19
ExecutionTime = 6.81 s  ClockTime = 7 s

Courant Number mean: 0.0907428 max: 0.456399
Interface Courant Number mean: 0.00612906 max: 0.39657
deltaT = 0.0023124
Time = 0.101876

PIMPLE: iteration 1
MULES: Solving for alpha.water
Phase-1 volume fraction = 0.25  Min(alpha.water) = -2.14902e-09  Max(alpha.water) = 1
MULES: Solving for alpha.water
Phase-1 volume fraction = 0.25  Min(alpha.water) = -1.91066e-09  Max(alpha.water) = 1
DICPCG:  Solving for p_rgh, Initial residual = 0.0614256, Final residual = 0.00259462, No Iterations 8
time step continuity errors : sum local = 3.43499e-06, global = -2.73027e-20, cumulative = 8.49029e-19
DICPCG:  Solving for p_rgh, Initial residual = 0.017143, Final residual = 0.000844421, No Iterations 8
time step continuity errors : sum local = 1.10848e-06, global = 2.78239e-20, cumulative = 8.76853e-19
DICPCG:  Solving for p_rgh, Initial residual = 0.00272172, Final residual = 7.2788e-08, No Iterations 102
time step continuity errors : sum local = 9.43766e-11, global = -6.16766e-20, cumulative = 8.15176e-19
ExecutionTime = 6.91 s  ClockTime = 7 s

Courant Number mean: 0.0993065 max: 0.495047
Interface Courant Number mean: 0.00696766 max: 0.457058
deltaT = 0.0023124
Time = 0.104188

PIMPLE: iteration 1
MULES: Solving for alpha.water
Phase-1 volume fraction = 0.25  Min(alpha.water) = -1.69137e-09  Max(alpha.water) = 1
MULES: Solving for alpha.water
Phase-1 volume fraction = 0.25  Min(alpha.water) = -1.48971e-09  Max(alpha.water) = 1
DICPCG:  Solving for p_rgh, Initial residual = 0.0553574, Final residual = 0.00267358, No Iterations 6
time step continuity errors : sum local = 3.4503e-06, global = -1.51194e-19, cumulative = 6.63982e-19
DICPCG:  Solving for p_rgh, Initial residual = 0.0169641, Final residual = 0.0008214, No Iterations 9
time step continuity errors : sum local = 1.06145e-06, global = -2.52806e-19, cumulative = 4.11176e-19
DICPCG:  Solving for p_rgh, Initial residual = 0.00266254, Final residual = 8.91635e-08, No Iterations 99
time step continuity errors : sum local = 1.15232e-10, global = -4.78252e-20, cumulative = 3.63351e-19
ExecutionTime = 7 s  ClockTime = 7 s

Courant Number mean: 0.0996445 max: 0.491699
Interface Courant Number mean: 0.00736269 max: 0.451397
deltaT = 0.0023124
Time = 0.106501

PIMPLE: iteration 1
MULES: Solving for alpha.water
Phase-1 volume fraction = 0.25  Min(alpha.water) = -1.43167e-09  Max(alpha.water) = 1
MULES: Solving for alpha.water
Phase-1 volume fraction = 0.25  Min(alpha.water) = -1.37802e-09  Max(alpha.water) = 1
DICPCG:  Solving for p_rgh, Initial residual = 0.0552513, Final residual = 0.00222163, No Iterations 7
time step continuity errors : sum local = 2.93908e-06, global = -6.12837e-20, cumulative = 3.02067e-19
DICPCG:  Solving for p_rgh, Initial residual = 0.0167067, Final residual = 0.000746615, No Iterations 12
time step continuity errors : sum local = 1.02908e-06, global = 4.17315e-20, cumulative = 3.43799e-19
DICPCG:  Solving for p_rgh, Initial residual = 0.00269732, Final residual = 7.96114e-08, No Iterations 100
time step continuity errors : sum local = 1.02751e-10, global = 8.93964e-20, cumulative = 4.33195e-19
ExecutionTime = 7.1 s  ClockTime = 7 s

Courant Number mean: 0.0999696 max: 0.492774
Interface Courant Number mean: 0.00762619 max: 0.44382
deltaT = 0.0023124
Time = 0.108813

PIMPLE: iteration 1
MULES: Solving for alpha.water
Phase-1 volume fraction = 0.25  Min(alpha.water) = -1.22848e-09  Max(alpha.water) = 1
MULES: Solving for alpha.water
Phase-1 volume fraction = 0.25  Min(alpha.water) = -1.09102e-09  Max(alpha.water) = 1
DICPCG:  Solving for p_rgh, Initial residual = 0.051609, Final residual = 0.00208978, No Iterations 7
time step continuity errors : sum local = 2.68734e-06, global = -6.66683e-20, cumulative = 3.66527e-19
DICPCG:  Solving for p_rgh, Initial residual = 0.0164843, Final residual = 0.000820453, No Iterations 8
time step continuity errors : sum local = 1.07178e-06, global = -1.79827e-20, cumulative = 3.48544e-19
DICPCG:  Solving for p_rgh, Initial residual = 0.00259514, Final residual = 8.36721e-08, No Iterations 102
time step continuity errors : sum local = 1.07377e-10, global = -9.69451e-20, cumulative = 2.51599e-19
ExecutionTime = 7.2 s  ClockTime = 7 s

Courant Number mean: 0.100285 max: 0.4944
Interface Courant Number mean: 0.00741673 max: 0.446775
deltaT = 0.0023124
Time = 0.111126

PIMPLE: iteration 1
MULES: Solving for alpha.water
Phase-1 volume fraction = 0.25  Min(alpha.water) = -9.65071e-10  Max(alpha.water) = 1
MULES: Solving for alpha.water
Phase-1 volume fraction = 0.25  Min(alpha.water) = -8.49976e-10  Max(alpha.water) = 1
DICPCG:  Solving for p_rgh, Initial residual = 0.062889, Final residual = 0.0031276, No Iterations 5
time step continuity errors : sum local = 4.06081e-06, global = 2.42149e-20, cumulative = 2.75814e-19
DICPCG:  Solving for p_rgh, Initial residual = 0.0172165, Final residual = 0.000774078, No Iterations 10
time step continuity errors : sum local = 1.02299e-06, global = 5.87092e-21, cumulative = 2.81685e-19
DICPCG:  Solving for p_rgh, Initial residual = 0.00268176, Final residual = 9.5607e-08, No Iterations 99
time step continuity errors : sum local = 1.22913e-10, global = -1.3501e-19, cumulative = 1.46674e-19
ExecutionTime = 7.3 s  ClockTime = 7 s

Courant Number mean: 0.100593 max: 0.495181
Interface Courant Number mean: 0.0072775 max: 0.442865
deltaT = 0.0023124
Time = 0.113438

PIMPLE: iteration 1
MULES: Solving for alpha.water
Phase-1 volume fraction = 0.25  Min(alpha.water) = -7.4464e-10  Max(alpha.water) = 1
MULES: Solving for alpha.water
Phase-1 volume fraction = 0.25  Min(alpha.water) = -6.48856e-10  Max(alpha.water) = 1
DICPCG:  Solving for p_rgh, Initial residual = 0.0520445, Final residual = 0.00219386, No Iterations 7
time step continuity errors : sum local = 2.85016e-06, global = -5.63441e-20, cumulative = 9.03302e-20
DICPCG:  Solving for p_rgh, Initial residual = 0.016589, Final residual = 0.00082278, No Iterations 9
time step continuity errors : sum local = 1.09718e-06, global = -1.8307e-20, cumulative = 7.20232e-20
DICPCG:  Solving for p_rgh, Initial residual = 0.0026146, Final residual = 6.84077e-08, No Iterations 100
time step continuity errors : sum local = 8.86843e-11, global = 1.95582e-20, cumulative = 9.15814e-20
ExecutionTime = 7.4 s  ClockTime = 7 s

Courant Number mean: 0.100893 max: 0.49505
Interface Courant Number mean: 0.00778076 max: 0.460884
deltaT = 0.0023124
Time = 0.11575

PIMPLE: iteration 1
MULES: Solving for alpha.water
Phase-1 volume fraction = 0.25  Min(alpha.water) = -5.6293e-10  Max(alpha.water) = 1
MULES: Solving for alpha.water
Phase-1 volume fraction = 0.25  Min(alpha.water) = -4.85352e-10  Max(alpha.water) = 1
DICPCG:  Solving for p_rgh, Initial residual = 0.0540564, Final residual = 0.0023483, No Iterations 6
time step continuity errors : sum local = 3.12952e-06, global = 3.07909e-22, cumulative = 9.18893e-20
DICPCG:  Solving for p_rgh, Initial residual = 0.0163428, Final residual = 0.000753399, No Iterations 12
time step continuity errors : sum local = 1.05332e-06, global = -6.87529e-20, cumulative = 2.31364e-20
DICPCG:  Solving for p_rgh, Initial residual = 0.00259965, Final residual = 8.28905e-08, No Iterations 100
time step continuity errors : sum local = 1.07893e-10, global = -3.07441e-20, cumulative = -7.6077e-21
ExecutionTime = 7.5 s  ClockTime = 7 s

Courant Number mean: 0.101173 max: 0.493952
Interface Courant Number mean: 0.00789486 max: 0.456478
deltaT = 0.0023124
Time = 0.118063

PIMPLE: iteration 1
MULES: Solving for alpha.water
Phase-1 volume fraction = 0.25  Min(alpha.water) = -4.21932e-10  Max(alpha.water) = 1
MULES: Solving for alpha.water
Phase-1 volume fraction = 0.25  Min(alpha.water) = -4.02088e-10  Max(alpha.water) = 1
DICPCG:  Solving for p_rgh, Initial residual = 0.0484133, Final residual = 0.00220073, No Iterations 7
time step continuity errors : sum local = 2.91394e-06, global = -3.53899e-20, cumulative = -4.29976e-20
DICPCG:  Solving for p_rgh, Initial residual = 0.016011, Final residual = 0.00074295, No Iterations 10
time step continuity errors : sum local = 1.01815e-06, global = -2.47491e-20, cumulative = -6.77467e-20
DICPCG:  Solving for p_rgh, Initial residual = 0.0025507, Final residual = 9.59618e-08, No Iterations 101
time step continuity errors : sum local = 1.25413e-10, global = 4.2294e-20, cumulative = -2.54528e-20
ExecutionTime = 7.6 s  ClockTime = 8 s

Courant Number mean: 0.101469 max: 0.491817
Interface Courant Number mean: 0.00764014 max: 0.450426
deltaT = 0.0023124
Time = 0.120375

PIMPLE: iteration 1
MULES: Solving for alpha.water
Phase-1 volume fraction = 0.25  Min(alpha.water) = -3.77421e-10  Max(alpha.water) = 1
MULES: Solving for alpha.water
Phase-1 volume fraction = 0.25  Min(alpha.water) = -3.49118e-10  Max(alpha.water) = 1
DICPCG:  Solving for p_rgh, Initial residual = 0.0503091, Final residual = 0.00236831, No Iterations 6
time step continuity errors : sum local = 3.20149e-06, global = -2.54498e-20, cumulative = -5.09026e-20
DICPCG:  Solving for p_rgh, Initial residual = 0.016029, Final residual = 0.000680269, No Iterations 12
time step continuity errors : sum local = 9.59362e-07, global = 8.37599e-20, cumulative = 3.28573e-20
DICPCG:  Solving for p_rgh, Initial residual = 0.00251576, Final residual = 7.96379e-08, No Iterations 101
time step continuity errors : sum local = 1.04289e-10, global = 1.58723e-19, cumulative = 1.91581e-19
ExecutionTime = 7.7 s  ClockTime = 8 s

Courant Number mean: 0.101768 max: 0.490257
Interface Courant Number mean: 0.00780441 max: 0.442814
deltaT = 0.0023124
Time = 0.122688

PIMPLE: iteration 1
MULES: Solving for alpha.water
Phase-1 volume fraction = 0.25  Min(alpha.water) = -7.19267e-09  Max(alpha.water) = 1
MULES: Solving for alpha.water
Phase-1 volume fraction = 0.25  Min(alpha.water) = -6.12841e-09  Max(alpha.water) = 1
DICPCG:  Solving for p_rgh, Initial residual = 0.0537268, Final residual = 0.00255777, No Iterations 7
time step continuity errors : sum local = 3.40115e-06, global = -2.57925e-20, cumulative = 1.65788e-19
DICPCG:  Solving for p_rgh, Initial residual = 0.0162012, Final residual = 0.000788859, No Iterations 12
time step continuity errors : sum local = 1.08623e-06, global = 9.11541e-20, cumulative = 2.56942e-19
DICPCG:  Solving for p_rgh, Initial residual = 0.00259169, Final residual = 7.72725e-08, No Iterations 102
time step continuity errors : sum local = 9.99619e-11, global = 1.49643e-19, cumulative = 4.06585e-19
ExecutionTime = 7.8 s  ClockTime = 8 s

Courant Number mean: 0.102072 max: 0.488421
Interface Courant Number mean: 0.00815338 max: 0.45336
[...]
deltaT = 0.00520833
Time = 7.91146

PIMPLE: iteration 1
MULES: Solving for alpha.water
Phase-1 volume fraction = 0.25  Min(alpha.water) = -2.23236e-08  Max(alpha.water) = 1
MULES: Solving for alpha.water
Phase-1 volume fraction = 0.25  Min(alpha.water) = -1.87586e-08  Max(alpha.water) = 1
DICPCG:  Solving for p_rgh, Initial residual = 0.142109, Final residual = 0.00429552, No Iterations 2
time step continuity errors : sum local = 4.49721e-05, global = 5.30407e-20, cumulative = -3.04332e-18
DICPCG:  Solving for p_rgh, Initial residual = 0.00892371, Final residual = 0.000357945, No Iterations 15
time step continuity errors : sum local = 3.84224e-06, global = 6.32694e-20, cumulative = -2.98005e-18
DICPCG:  Solving for p_rgh, Initial residual = 0.00200643, Final residual = 9.44036e-08, No Iterations 104
time step continuity errors : sum local = 1.0025e-09, global = 1.0997e-20, cumulative = -2.96905e-18
ExecutionTime = 228.51 s  ClockTime = 257 s

Courant Number mean: 0.110634 max: 0.482029
Interface Courant Number mean: 0.0345239 max: 0.482029
deltaT = 0.00520833
Time = 7.91667

PIMPLE: iteration 1
MULES: Solving for alpha.water
Phase-1 volume fraction = 0.25  Min(alpha.water) = -1.5801e-08  Max(alpha.water) = 1
MULES: Solving for alpha.water
Phase-1 volume fraction = 0.25  Min(alpha.water) = -7.04599e-08  Max(alpha.water) = 1
DICPCG:  Solving for p_rgh, Initial residual = 0.138856, Final residual = 0.00413263, No Iterations 2
time step continuity errors : sum local = 4.3726e-05, global = -2.00018e-20, cumulative = -2.98905e-18
DICPCG:  Solving for p_rgh, Initial residual = 0.00869093, Final residual = 0.000412917, No Iterations 13
time step continuity errors : sum local = 4.51315e-06, global = -4.72008e-20, cumulative = -3.03625e-18
DICPCG:  Solving for p_rgh, Initial residual = 0.00198152, Final residual = 8.12199e-08, No Iterations 105
time step continuity errors : sum local = 8.57912e-10, global = -1.6344e-19, cumulative = -3.19969e-18
ExecutionTime = 228.61 s  ClockTime = 257 s

Courant Number mean: 0.110744 max: 0.485559
Interface Courant Number mean: 0.0337671 max: 0.485559
deltaT = 0.00520833
Time = 7.92187

PIMPLE: iteration 1
MULES: Solving for alpha.water
Phase-1 volume fraction = 0.25  Min(alpha.water) = -1.12361e-08  Max(alpha.water) = 1
MULES: Solving for alpha.water
Phase-1 volume fraction = 0.25  Min(alpha.water) = -9.46481e-09  Max(alpha.water) = 1
DICPCG:  Solving for p_rgh, Initial residual = 0.147784, Final residual = 0.00419618, No Iterations 2
time step continuity errors : sum local = 4.47355e-05, global = 2.9907e-20, cumulative = -3.16979e-18
DICPCG:  Solving for p_rgh, Initial residual = 0.00907138, Final residual = 0.000390722, No Iterations 14
time step continuity errors : sum local = 4.33028e-06, global = -1.75421e-19, cumulative = -3.34521e-18
DICPCG:  Solving for p_rgh, Initial residual = 0.00202183, Final residual = 9.80163e-08, No Iterations 104
time step continuity errors : sum local = 1.05283e-09, global = 6.78756e-20, cumulative = -3.27733e-18
ExecutionTime = 228.71 s  ClockTime = 258 s

Courant Number mean: 0.110723 max: 0.501869
Interface Courant Number mean: 0.0341564 max: 0.501869
deltaT = 0.00488281
Time = 7.92676

PIMPLE: iteration 1
MULES: Solving for alpha.water
Phase-1 volume fraction = 0.25  Min(alpha.water) = -8.08685e-09  Max(alpha.water) = 1
MULES: Solving for alpha.water
Phase-1 volume fraction = 0.25  Min(alpha.water) = -6.9082e-09  Max(alpha.water) = 1
DICPCG:  Solving for p_rgh, Initial residual = 0.123795, Final residual = 0.00303428, No Iterations 2
time step continuity errors : sum local = 2.90738e-05, global = -2.2014e-20, cumulative = -3.29935e-18
DICPCG:  Solving for p_rgh, Initial residual = 0.00751414, Final residual = 0.0003755, No Iterations 14
time step continuity errors : sum local = 3.69032e-06, global = 9.84599e-20, cumulative = -3.20089e-18
DICPCG:  Solving for p_rgh, Initial residual = 0.00169932, Final residual = 8.9797e-08, No Iterations 99
time step continuity errors : sum local = 8.54438e-10, global = -1.32315e-19, cumulative = -3.3332e-18
ExecutionTime = 228.81 s  ClockTime = 258 s

Courant Number mean: 0.103772 max: 0.475981
Interface Courant Number mean: 0.0324906 max: 0.475981
deltaT = 0.00488281
Time = 7.93164

PIMPLE: iteration 1
MULES: Solving for alpha.water
Phase-1 volume fraction = 0.25  Min(alpha.water) = -5.92228e-09  Max(alpha.water) = 1
MULES: Solving for alpha.water
Phase-1 volume fraction = 0.25  Min(alpha.water) = -1.73582e-08  Max(alpha.water) = 1
DICPCG:  Solving for p_rgh, Initial residual = 0.125187, Final residual = 0.00332013, No Iterations 2
time step continuity errors : sum local = 3.14802e-05, global = -2.12035e-19, cumulative = -3.54524e-18
DICPCG:  Solving for p_rgh, Initial residual = 0.00776481, Final residual = 0.000379567, No Iterations 24
time step continuity errors : sum local = 3.59537e-06, global = -2.28248e-19, cumulative = -3.77348e-18
DICPCG:  Solving for p_rgh, Initial residual = 0.0017116, Final residual = 7.22117e-08, No Iterations 103
time step continuity errors : sum local = 6.82566e-10, global = -1.67342e-20, cumulative = -3.79022e-18
ExecutionTime = 228.91 s  ClockTime = 258 s

Courant Number mean: 0.103737 max: 0.465466
Interface Courant Number mean: 0.0322987 max: 0.465466
deltaT = 0.00488281
Time = 7.93652

PIMPLE: iteration 1
MULES: Solving for alpha.water
Phase-1 volume fraction = 0.25  Min(alpha.water) = -4.36954e-09  Max(alpha.water) = 1
MULES: Solving for alpha.water
Phase-1 volume fraction = 0.25  Min(alpha.water) = -4.28941e-09  Max(alpha.water) = 1
DICPCG:  Solving for p_rgh, Initial residual = 0.125343, Final residual = 0.00432129, No Iterations 2
time step continuity errors : sum local = 4.01622e-05, global = 4.35639e-20, cumulative = -3.74665e-18
DICPCG:  Solving for p_rgh, Initial residual = 0.00810037, Final residual = 0.00037494, No Iterations 14
time step continuity errors : sum local = 3.46215e-06, global = 8.9154e-20, cumulative = -3.6575e-18
DICPCG:  Solving for p_rgh, Initial residual = 0.00182485, Final residual = 7.4221e-08, No Iterations 104
time step continuity errors : sum local = 6.7874e-10, global = -3.48294e-20, cumulative = -3.69233e-18
ExecutionTime = 229.01 s  ClockTime = 258 s

Courant Number mean: 0.103713 max: 0.458118
Interface Courant Number mean: 0.0323797 max: 0.458118
deltaT = 0.00528971
Time = 7.94181

PIMPLE: iteration 1
MULES: Solving for alpha.water
Phase-1 volume fraction = 0.25  Min(alpha.water) = -4.16108e-09  Max(alpha.water) = 1
MULES: Solving for alpha.water
Phase-1 volume fraction = 0.25  Min(alpha.water) = -3.95757e-09  Max(alpha.water) = 1
DICPCG:  Solving for p_rgh, Initial residual = 0.163883, Final residual = 0.0049664, No Iterations 2
time step continuity errors : sum local = 5.18846e-05, global = 3.42222e-20, cumulative = -3.65811e-18
DICPCG:  Solving for p_rgh, Initial residual = 0.0093653, Final residual = 0.000393113, No Iterations 15
time step continuity errors : sum local = 4.27084e-06, global = -7.07951e-20, cumulative = -3.7289e-18
DICPCG:  Solving for p_rgh, Initial residual = 0.00217068, Final residual = 7.96584e-08, No Iterations 105
time step continuity errors : sum local = 8.26155e-10, global = 1.23051e-19, cumulative = -3.60585e-18
ExecutionTime = 229.11 s  ClockTime = 258 s

Courant Number mean: 0.112273 max: 0.496594
Interface Courant Number mean: 0.0350381 max: 0.496594
deltaT = 0.00528971
Time = 7.9471

PIMPLE: iteration 1
MULES: Solving for alpha.water
Phase-1 volume fraction = 0.25  Min(alpha.water) = -3.71931e-09  Max(alpha.water) = 1
MULES: Solving for alpha.water
Phase-1 volume fraction = 0.25  Min(alpha.water) = -6.26979e-08  Max(alpha.water) = 1
DICPCG:  Solving for p_rgh, Initial residual = 0.155704, Final residual = 0.00434229, No Iterations 2
time step continuity errors : sum local = 4.57996e-05, global = -2.08898e-19, cumulative = -3.81475e-18
DICPCG:  Solving for p_rgh, Initial residual = 0.00847174, Final residual = 0.00038841, No Iterations 14
time step continuity errors : sum local = 4.2579e-06, global = -7.04424e-21, cumulative = -3.82179e-18
DICPCG:  Solving for p_rgh, Initial residual = 0.00197014, Final residual = 8.26459e-08, No Iterations 102
time step continuity errors : sum local = 8.83729e-10, global = -1.52743e-20, cumulative = -3.83707e-18
ExecutionTime = 229.21 s  ClockTime = 258 s

Courant Number mean: 0.112238 max: 0.492905
Interface Courant Number mean: 0.0343478 max: 0.492905
deltaT = 0.00528971
Time = 7.95239

PIMPLE: iteration 1
MULES: Solving for alpha.water
Phase-1 volume fraction = 0.25  Min(alpha.water) = -4.80464e-09  Max(alpha.water) = 1
MULES: Solving for alpha.water
Phase-1 volume fraction = 0.25  Min(alpha.water) = -3.96862e-09  Max(alpha.water) = 1
DICPCG:  Solving for p_rgh, Initial residual = 0.138195, Final residual = 0.00382121, No Iterations 2
time step continuity errors : sum local = 4.12105e-05, global = 8.26154e-20, cumulative = -3.75445e-18
DICPCG:  Solving for p_rgh, Initial residual = 0.00800492, Final residual = 0.00039181, No Iterations 14
time step continuity errors : sum local = 4.35641e-06, global = 7.50612e-20, cumulative = -3.67939e-18
DICPCG:  Solving for p_rgh, Initial residual = 0.00194215, Final residual = 8.41482e-08, No Iterations 104
time step continuity errors : sum local = 9.11513e-10, global = -1.46379e-19, cumulative = -3.82577e-18
ExecutionTime = 229.31 s  ClockTime = 258 s

Courant Number mean: 0.112189 max: 0.493079
Interface Courant Number mean: 0.0346073 max: 0.493079
deltaT = 0.00528971
Time = 7.95768

PIMPLE: iteration 1
MULES: Solving for alpha.water
Phase-1 volume fraction = 0.25  Min(alpha.water) = -3.30477e-09  Max(alpha.water) = 1
MULES: Solving for alpha.water
Phase-1 volume fraction = 0.25  Min(alpha.water) = -2.75101e-09  Max(alpha.water) = 1
DICPCG:  Solving for p_rgh, Initial residual = 0.13812, Final residual = 0.00265074, No Iterations 2
time step continuity errors : sum local = 2.92073e-05, global = -1.16459e-19, cumulative = -3.94223e-18
DICPCG:  Solving for p_rgh, Initial residual = 0.00690268, Final residual = 0.000336292, No Iterations 13
time step continuity errors : sum local = 3.77968e-06, global = 1.8551e-19, cumulative = -3.75672e-18
DICPCG:  Solving for p_rgh, Initial residual = 0.00176219, Final residual = 7.04828e-08, No Iterations 103
time step continuity errors : sum local = 7.8721e-10, global = 1.27798e-20, cumulative = -3.74394e-18
ExecutionTime = 229.41 s  ClockTime = 258 s

Courant Number mean: 0.112146 max: 0.492112
Interface Courant Number mean: 0.035222 max: 0.492112
deltaT = 0.00528971
Time = 7.96297

PIMPLE: iteration 1
MULES: Solving for alpha.water
Phase-1 volume fraction = 0.25  Min(alpha.water) = -2.29054e-09  Max(alpha.water) = 1
MULES: Solving for alpha.water
Phase-1 volume fraction = 0.25  Min(alpha.water) = -3.25144e-08  Max(alpha.water) = 1
DICPCG:  Solving for p_rgh, Initial residual = 0.137399, Final residual = 0.00366289, No Iterations 2
time step continuity errors : sum local = 4.14892e-05, global = -5.29697e-20, cumulative = -3.79691e-18
DICPCG:  Solving for p_rgh, Initial residual = 0.00793269, Final residual = 0.000321065, No Iterations 15
time step continuity errors : sum local = 3.75167e-06, global = -1.55057e-20, cumulative = -3.81241e-18
DICPCG:  Solving for p_rgh, Initial residual = 0.0018197, Final residual = 8.78548e-08, No Iterations 104
time step continuity errors : sum local = 1.00748e-09, global = 2.16934e-20, cumulative = -3.79072e-18
ExecutionTime = 229.51 s  ClockTime = 258 s

Courant Number mean: 0.112023 max: 0.48962
Interface Courant Number mean: 0.0343448 max: 0.48962
deltaT = 0.00528971
Time = 7.96826

PIMPLE: iteration 1
MULES: Solving for alpha.water
Phase-1 volume fraction = 0.25  Min(alpha.water) = -2.67697e-08  Max(alpha.water) = 1
MULES: Solving for alpha.water
Phase-1 volume fraction = 0.25  Min(alpha.water) = -2.20419e-08  Max(alpha.water) = 1
DICPCG:  Solving for p_rgh, Initial residual = 0.131477, Final residual = 0.0034711, No Iterations 2
time step continuity errors : sum local = 4.01395e-05, global = 1.21482e-20, cumulative = -3.77857e-18
DICPCG:  Solving for p_rgh, Initial residual = 0.0071676, Final residual = 0.000327426, No Iterations 12
time step continuity errors : sum local = 3.85291e-06, global = -3.95459e-20, cumulative = -3.81812e-18
DICPCG:  Solving for p_rgh, Initial residual = 0.00165098, Final residual = 8.90784e-08, No Iterations 101
time step continuity errors : sum local = 1.04082e-09, global = 9.57443e-21, cumulative = -3.80854e-18
ExecutionTime = 229.61 s  ClockTime = 258 s

Courant Number mean: 0.111947 max: 0.495434
Interface Courant Number mean: 0.0340316 max: 0.495434
deltaT = 0.00528971
Time = 7.97355

PIMPLE: iteration 1
MULES: Solving for alpha.water
Phase-1 volume fraction = 0.25  Min(alpha.water) = -1.82533e-08  Max(alpha.water) = 1
MULES: Solving for alpha.water
Phase-1 volume fraction = 0.25  Min(alpha.water) = -1.51183e-08  Max(alpha.water) = 1
DICPCG:  Solving for p_rgh, Initial residual = 0.147143, Final residual = 0.0041162, No Iterations 2
time step continuity errors : sum local = 4.8394e-05, global = -1.40169e-19, cumulative = -3.94871e-18
DICPCG:  Solving for p_rgh, Initial residual = 0.00819953, Final residual = 0.000386946, No Iterations 17
time step continuity errors : sum local = 4.6395e-06, global = 3.9414e-20, cumulative = -3.9093e-18
DICPCG:  Solving for p_rgh, Initial residual = 0.0018569, Final residual = 9.16103e-08, No Iterations 104
time step continuity errors : sum local = 1.09035e-09, global = -7.71728e-20, cumulative = -3.98647e-18
ExecutionTime = 229.71 s  ClockTime = 259 s

Courant Number mean: 0.111853 max: 0.509994
Interface Courant Number mean: 0.0347629 max: 0.509994
deltaT = 0.00440809
Time = 7.97796

PIMPLE: iteration 1
MULES: Solving for alpha.water
Phase-1 volume fraction = 0.25  Min(alpha.water) = -1.29695e-08  Max(alpha.water) = 1
MULES: Solving for alpha.water
Phase-1 volume fraction = 0.25  Min(alpha.water) = -1.11275e-08  Max(alpha.water) = 1
DICPCG:  Solving for p_rgh, Initial residual = 0.136186, Final residual = 0.00450202, No Iterations 2
time step continuity errors : sum local = 3.91526e-05, global = 1.19047e-19, cumulative = -3.86743e-18
DICPCG:  Solving for p_rgh, Initial residual = 0.00758353, Final residual = 0.000312546, No Iterations 15
time step continuity errors : sum local = 2.84583e-06, global = -2.11099e-20, cumulative = -3.88854e-18
DICPCG:  Solving for p_rgh, Initial residual = 0.00154042, Final residual = 8.69246e-08, No Iterations 105
time step continuity errors : sum local = 7.59167e-10, global = 2.61678e-20, cumulative = -3.86237e-18
ExecutionTime = 229.81 s  ClockTime = 259 s

Courant Number mean: 0.0931821 max: 0.430403
Interface Courant Number mean: 0.0286249 max: 0.430403
deltaT = 0.00440809
Time = 7.98237

PIMPLE: iteration 1
MULES: Solving for alpha.water
Phase-1 volume fraction = 0.25  Min(alpha.water) = -9.52935e-09  Max(alpha.water) = 1
MULES: Solving for alpha.water
Phase-1 volume fraction = 0.25  Min(alpha.water) = -8.16117e-09  Max(alpha.water) = 1
DICPCG:  Solving for p_rgh, Initial residual = 0.121246, Final residual = 0.00375521, No Iterations 2
time step continuity errors : sum local = 3.31423e-05, global = -1.19143e-19, cumulative = -3.98151e-18
DICPCG:  Solving for p_rgh, Initial residual = 0.00688069, Final residual = 0.000279229, No Iterations 14
time step continuity errors : sum local = 2.54361e-06, global = -1.08536e-20, cumulative = -3.99236e-18
DICPCG:  Solving for p_rgh, Initial residual = 0.00133897, Final residual = 9.05187e-08, No Iterations 101
time step continuity errors : sum local = 8.06162e-10, global = -2.84899e-21, cumulative = -3.99521e-18
ExecutionTime = 229.91 s  ClockTime = 259 s

Courant Number mean: 0.0931993 max: 0.434892
Interface Courant Number mean: 0.0282564 max: 0.434892
deltaT = 0.00440809
Time = 7.98678

PIMPLE: iteration 1
MULES: Solving for alpha.water
Phase-1 volume fraction = 0.25  Min(alpha.water) = -6.97157e-09  Max(alpha.water) = 1
MULES: Solving for alpha.water
Phase-1 volume fraction = 0.25  Min(alpha.water) = -5.95478e-09  Max(alpha.water) = 1
DICPCG:  Solving for p_rgh, Initial residual = 0.120959, Final residual = 0.00325674, No Iterations 2
time step continuity errors : sum local = 2.92218e-05, global = 1.49706e-20, cumulative = -3.98024e-18
DICPCG:  Solving for p_rgh, Initial residual = 0.00652015, Final residual = 0.000324772, No Iterations 15
time step continuity errors : sum local = 2.95208e-06, global = -9.30018e-20, cumulative = -4.07324e-18
DICPCG:  Solving for p_rgh, Initial residual = 0.00134329, Final residual = 9.26935e-08, No Iterations 103
time step continuity errors : sum local = 8.38365e-10, global = 1.49847e-19, cumulative = -3.9234e-18
ExecutionTime = 230.01 s  ClockTime = 259 s

Courant Number mean: 0.0932697 max: 0.440246
Interface Courant Number mean: 0.0288905 max: 0.440246
deltaT = 0.00440809
Time = 7.99118

PIMPLE: iteration 1
MULES: Solving for alpha.water
Phase-1 volume fraction = 0.25  Min(alpha.water) = -5.07185e-09  Max(alpha.water) = 1
MULES: Solving for alpha.water
Phase-1 volume fraction = 0.25  Min(alpha.water) = -4.3192e-09  Max(alpha.water) = 1
DICPCG:  Solving for p_rgh, Initial residual = 0.121135, Final residual = 0.00331448, No Iterations 2
time step continuity errors : sum local = 3.01388e-05, global = 1.67983e-19, cumulative = -3.75541e-18
DICPCG:  Solving for p_rgh, Initial residual = 0.00624294, Final residual = 0.000266876, No Iterations 14
time step continuity errors : sum local = 2.52661e-06, global = -1.16838e-20, cumulative = -3.7671e-18
DICPCG:  Solving for p_rgh, Initial residual = 0.00125358, Final residual = 7.68577e-08, No Iterations 102
time step continuity errors : sum local = 7.01668e-10, global = 6.2444e-20, cumulative = -3.70465e-18
ExecutionTime = 230.11 s  ClockTime = 259 s

Courant Number mean: 0.0933691 max: 0.445841
Interface Courant Number mean: 0.0290608 max: 0.445841
deltaT = 0.00440809
Time = 7.99559

PIMPLE: iteration 1
MULES: Solving for alpha.water
Phase-1 volume fraction = 0.25  Min(alpha.water) = -3.6947e-09  Max(alpha.water) = 1
MULES: Solving for alpha.water
Phase-1 volume fraction = 0.25  Min(alpha.water) = -3.68158e-09  Max(alpha.water) = 1
DICPCG:  Solving for p_rgh, Initial residual = 0.117143, Final residual = 0.00403358, No Iterations 2
time step continuity errors : sum local = 3.69763e-05, global = 7.88603e-20, cumulative = -3.62579e-18
DICPCG:  Solving for p_rgh, Initial residual = 0.00682625, Final residual = 0.000313293, No Iterations 15
time step continuity errors : sum local = 2.97901e-06, global = -1.83588e-19, cumulative = -3.80938e-18
DICPCG:  Solving for p_rgh, Initial residual = 0.00135282, Final residual = 8.3543e-08, No Iterations 103
time step continuity errors : sum local = 7.67383e-10, global = -3.63585e-21, cumulative = -3.81302e-18
ExecutionTime = 230.21 s  ClockTime = 259 s

Courant Number mean: 0.093424 max: 0.452942
Interface Courant Number mean: 0.0283085 max: 0.452942
deltaT = 0.00440809
Time = 8

PIMPLE: iteration 1
MULES: Solving for alpha.water
Phase-1 volume fraction = 0.25  Min(alpha.water) = -3.59279e-09  Max(alpha.water) = 1
MULES: Solving for alpha.water
Phase-1 volume fraction = 0.25  Min(alpha.water) = -3.44618e-09  Max(alpha.water) = 1
DICPCG:  Solving for p_rgh, Initial residual = 0.117376, Final residual = 0.00400165, No Iterations 2
time step continuity errors : sum local = 3.72124e-05, global = -3.97392e-20, cumulative = -3.85276e-18
DICPCG:  Solving for p_rgh, Initial residual = 0.00724155, Final residual = 0.000326913, No Iterations 14
time step continuity errors : sum local = 3.21307e-06, global = -6.87098e-20, cumulative = -3.92147e-18
DICPCG:  Solving for p_rgh, Initial residual = 0.00139459, Final residual = 9.29332e-08, No Iterations 103
time step continuity errors : sum local = 8.74626e-10, global = 5.94221e-21, cumulative = -3.91552e-18
ExecutionTime = 230.87 s  ClockTime = 260 s

End

