Env_base: K-1.2.0-20-1
Parameters for jobscript: 
interFoam
In /work/job.5464063/sample.
total 1036
drwxrwxrwx 2 a03106 ra000007 4096 Nov  1 14:13 0
-rw-r--r-- 1 a03106 ra000007  360 Nov  1 14:08 Allrun
drwxrwxrwx 3 a03106 ra000007 4096 Nov  1 14:13 constant
-rwxr-xr-x 1 a03106 ra000007  126 Nov  1 14:08 makeMesh
drwxrwxrwx 2 a03106 ra000007 4096 Nov  1 14:13 system
Running ./makeMesh on /work/job.5464063/sample
Running setFields on /work/job.5464063/sample
Running interFoam on /work/job.5464063/sample
/work/job.5464063/sample/..
total 536
-rw-r--r--  1 a03106 ra000007 2865 May 22  2015 RunFunctions
drwxrwxrwx  2 a03106 ra000007 4096 Nov  1 14:12 bin
drwxrwxrwx  2 a03106 ra000007 4096 Nov  1 14:12 etc
drwxrwxrwx  2 a03106 ra000007 8192 Nov  1 14:13 lib
drwxrwxrwx 25 a03106 ra000007 4096 Nov  1 14:15 sample
/*---------------------------------------------------------------------------*\
| =========                 |                                                 |
| \\      /  F ield         | OpenFOAM: The Open Source CFD Toolbox           |
|  \\    /   O peration     | Version:  2.4.0                                 |
|   \\  /    A nd           | Web:      www.OpenFOAM.org                      |
|    \\/     M anipulation  |                                                 |
\*---------------------------------------------------------------------------*/
Build  : 2.4.0-dcea1e13ff76
Exec   : ../bin/foamToVTK -ascii
Date   : Nov 01 2016
Time   : 14:15:22
Host   : "t04-021"
PID    : 25633
Case   : /work/job.5464063/sample
nProcs : 1
fileModificationChecking : Monitoring run-time modified files using timeStampMaster
allowSystemOperations : Allowing user-supplied system call operations

// * * * * * * * * * * * * * * * * * * * * * * * * * * * * * * * * * * * * * //
Create time

Create mesh for time = 0

Time: 0
    volScalarFields            : p_rgh alpha.water alpha.water.org
    volVectorFields            : U

    Internal  : "/work/job.5464063/sample/VTK/sample_0.vtk"
    Original cells:3072 points:6528   Additional cells:0  additional points:0

    Patch     : "/work/job.5464063/sample/VTK/rotor/rotor_0.vtk"
    Patch     : "/work/job.5464063/sample/VTK/stator/stator_0.vtk"
    Patch     : "/work/job.5464063/sample/VTK/front/front_0.vtk"
    Patch     : "/work/job.5464063/sample/VTK/back/back_0.vtk"
Time: 0.1
    volScalarFields            : p alpha.water p_rgh
    volVectorFields            : U

    Internal  : "/work/job.5464063/sample/VTK/sample_46.vtk"
    Patch     : "/work/job.5464063/sample/VTK/rotor/rotor_46.vtk"
    Patch     : "/work/job.5464063/sample/VTK/stator/stator_46.vtk"
    Patch     : "/work/job.5464063/sample/VTK/front/front_46.vtk"
    Patch     : "/work/job.5464063/sample/VTK/back/back_46.vtk"
    surfScalarFields  : phi phiAlpha
Time: 0.2
    volScalarFields            : p alpha.water p_rgh
    volVectorFields            : U

    Internal  : "/work/job.5464063/sample/VTK/sample_83.vtk"
    Patch     : "/work/job.5464063/sample/VTK/rotor/rotor_83.vtk"
    Patch     : "/work/job.5464063/sample/VTK/stator/stator_83.vtk"
    Patch     : "/work/job.5464063/sample/VTK/front/front_83.vtk"
    Patch     : "/work/job.5464063/sample/VTK/back/back_83.vtk"
    surfScalarFields  : phi phiAlpha
Time: 0.3
    volScalarFields            : p alpha.water p_rgh
    volVectorFields            : U

    Internal  : "/work/job.5464063/sample/VTK/sample_116.vtk"
    Patch     : "/work/job.5464063/sample/VTK/rotor/rotor_116.vtk"
    Patch     : "/work/job.5464063/sample/VTK/stator/stator_116.vtk"
    Patch     : "/work/job.5464063/sample/VTK/front/front_116.vtk"
    Patch     : "/work/job.5464063/sample/VTK/back/back_116.vtk"
    surfScalarFields  : phi phiAlpha
Time: 0.4
    volScalarFields            : p alpha.water p_rgh
    volVectorFields            : U

    Internal  : "/work/job.5464063/sample/VTK/sample_147.vtk"
    Patch     : "/work/job.5464063/sample/VTK/rotor/rotor_147.vtk"
    Patch     : "/work/job.5464063/sample/VTK/stator/stator_147.vtk"
    Patch     : "/work/job.5464063/sample/VTK/front/front_147.vtk"
    Patch     : "/work/job.5464063/sample/VTK/back/back_147.vtk"
    surfScalarFields  : phi phiAlpha
Time: 0.5
    volScalarFields            : p alpha.water p_rgh
    volVectorFields            : U

    Internal  : "/work/job.5464063/sample/VTK/sample_177.vtk"
    Patch     : "/work/job.5464063/sample/VTK/rotor/rotor_177.vtk"
    Patch     : "/work/job.5464063/sample/VTK/stator/stator_177.vtk"
    Patch     : "/work/job.5464063/sample/VTK/front/front_177.vtk"
    Patch     : "/work/job.5464063/sample/VTK/back/back_177.vtk"
    surfScalarFields  : phi phiAlpha
Time: 0.6
    volScalarFields            : p alpha.water p_rgh
    volVectorFields            : U

    Internal  : "/work/job.5464063/sample/VTK/sample_207.vtk"
    Patch     : "/work/job.5464063/sample/VTK/rotor/rotor_207.vtk"
    Patch     : "/work/job.5464063/sample/VTK/stator/stator_207.vtk"
    Patch     : "/work/job.5464063/sample/VTK/front/front_207.vtk"
    Patch     : "/work/job.5464063/sample/VTK/back/back_207.vtk"
    surfScalarFields  : phi phiAlpha
Time: 0.7
    volScalarFields            : p alpha.water p_rgh
    volVectorFields            : U

    Internal  : "/work/job.5464063/sample/VTK/sample_237.vtk"
    Patch     : "/work/job.5464063/sample/VTK/rotor/rotor_237.vtk"
    Patch     : "/work/job.5464063/sample/VTK/stator/stator_237.vtk"
    Patch     : "/work/job.5464063/sample/VTK/front/front_237.vtk"
    Patch     : "/work/job.5464063/sample/VTK/back/back_237.vtk"
    surfScalarFields  : phi phiAlpha
Time: 0.8
    volScalarFields            : p alpha.water p_rgh
    volVectorFields            : U

    Internal  : "/work/job.5464063/sample/VTK/sample_263.vtk"
    Patch     : "/work/job.5464063/sample/VTK/rotor/rotor_263.vtk"
    Patch     : "/work/job.5464063/sample/VTK/stator/stator_263.vtk"
    Patch     : "/work/job.5464063/sample/VTK/front/front_263.vtk"
    Patch     : "/work/job.5464063/sample/VTK/back/back_263.vtk"
    surfScalarFields  : phi phiAlpha
Time: 0.9
    volScalarFields            : p alpha.water p_rgh
    volVectorFields            : U

    Internal  : "/work/job.5464063/sample/VTK/sample_287.vtk"
    Patch     : "/work/job.5464063/sample/VTK/rotor/rotor_287.vtk"
    Patch     : "/work/job.5464063/sample/VTK/stator/stator_287.vtk"
    Patch     : "/work/job.5464063/sample/VTK/front/front_287.vtk"
    Patch     : "/work/job.5464063/sample/VTK/back/back_287.vtk"
    surfScalarFields  : phi phiAlpha
Time: 1
    volScalarFields            : p alpha.water p_rgh
    volVectorFields            : U

    Internal  : "/work/job.5464063/sample/VTK/sample_309.vtk"
    Patch     : "/work/job.5464063/sample/VTK/rotor/rotor_309.vtk"
    Patch     : "/work/job.5464063/sample/VTK/stator/stator_309.vtk"
    Patch     : "/work/job.5464063/sample/VTK/front/front_309.vtk"
    Patch     : "/work/job.5464063/sample/VTK/back/back_309.vtk"
    surfScalarFields  : phi phiAlpha
Time: 1.1
    volScalarFields            : p alpha.water p_rgh
    volVectorFields            : U

    Internal  : "/work/job.5464063/sample/VTK/sample_330.vtk"
    Patch     : "/work/job.5464063/sample/VTK/rotor/rotor_330.vtk"
    Patch     : "/work/job.5464063/sample/VTK/stator/stator_330.vtk"
    Patch     : "/work/job.5464063/sample/VTK/front/front_330.vtk"
    Patch     : "/work/job.5464063/sample/VTK/back/back_330.vtk"
    surfScalarFields  : phi phiAlpha
Time: 1.2
    volScalarFields            : p alpha.water p_rgh
    volVectorFields            : U

    Internal  : "/work/job.5464063/sample/VTK/sample_351.vtk"
    Patch     : "/work/job.5464063/sample/VTK/rotor/rotor_351.vtk"
    Patch     : "/work/job.5464063/sample/VTK/stator/stator_351.vtk"
    Patch     : "/work/job.5464063/sample/VTK/front/front_351.vtk"
    Patch     : "/work/job.5464063/sample/VTK/back/back_351.vtk"
    surfScalarFields  : phi phiAlpha
Time: 1.3
    volScalarFields            : p alpha.water p_rgh
    volVectorFields            : U

    Internal  : "/work/job.5464063/sample/VTK/sample_369.vtk"
    Patch     : "/work/job.5464063/sample/VTK/rotor/rotor_369.vtk"
    Patch     : "/work/job.5464063/sample/VTK/stator/stator_369.vtk"
    Patch     : "/work/job.5464063/sample/VTK/front/front_369.vtk"
    Patch     : "/work/job.5464063/sample/VTK/back/back_369.vtk"
    surfScalarFields  : phi phiAlpha
Time: 1.4
    volScalarFields            : p alpha.water p_rgh
    volVectorFields            : U

    Internal  : "/work/job.5464063/sample/VTK/sample_387.vtk"
    Patch     : "/work/job.5464063/sample/VTK/rotor/rotor_387.vtk"
    Patch     : "/work/job.5464063/sample/VTK/stator/stator_387.vtk"
    Patch     : "/work/job.5464063/sample/VTK/front/front_387.vtk"
    Patch     : "/work/job.5464063/sample/VTK/back/back_387.vtk"
    surfScalarFields  : phi phiAlpha
Time: 1.5
    volScalarFields            : p alpha.water p_rgh
    volVectorFields            : U

    Internal  : "/work/job.5464063/sample/VTK/sample_405.vtk"
    Patch     : "/work/job.5464063/sample/VTK/rotor/rotor_405.vtk"
    Patch     : "/work/job.5464063/sample/VTK/stator/stator_405.vtk"
    Patch     : "/work/job.5464063/sample/VTK/front/front_405.vtk"
    Patch     : "/work/job.5464063/sample/VTK/back/back_405.vtk"
    surfScalarFields  : phi phiAlpha
Time: 1.6
    volScalarFields            : p alpha.water p_rgh
    volVectorFields            : U

    Internal  : "/work/job.5464063/sample/VTK/sample_423.vtk"
    Patch     : "/work/job.5464063/sample/VTK/rotor/rotor_423.vtk"
    Patch     : "/work/job.5464063/sample/VTK/stator/stator_423.vtk"
    Patch     : "/work/job.5464063/sample/VTK/front/front_423.vtk"
    Patch     : "/work/job.5464063/sample/VTK/back/back_423.vtk"
    surfScalarFields  : phi phiAlpha
Time: 1.7
    volScalarFields            : p alpha.water p_rgh
    volVectorFields            : U

    Internal  : "/work/job.5464063/sample/VTK/sample_442.vtk"
    Patch     : "/work/job.5464063/sample/VTK/rotor/rotor_442.vtk"
    Patch     : "/work/job.5464063/sample/VTK/stator/stator_442.vtk"
    Patch     : "/work/job.5464063/sample/VTK/front/front_442.vtk"
    Patch     : "/work/job.5464063/sample/VTK/back/back_442.vtk"
    surfScalarFields  : phi phiAlpha
Time: 1.8
    volScalarFields            : p alpha.water p_rgh
    volVectorFields            : U

    Internal  : "/work/job.5464063/sample/VTK/sample_461.vtk"
    Patch     : "/work/job.5464063/sample/VTK/rotor/rotor_461.vtk"
    Patch     : "/work/job.5464063/sample/VTK/stator/stator_461.vtk"
    Patch     : "/work/job.5464063/sample/VTK/front/front_461.vtk"
    Patch     : "/work/job.5464063/sample/VTK/back/back_461.vtk"
    surfScalarFields  : phi phiAlpha
Time: 1.9
    volScalarFields            : p alpha.water p_rgh
    volVectorFields            : U

    Internal  : "/work/job.5464063/sample/VTK/sample_480.vtk"
    Patch     : "/work/job.5464063/sample/VTK/rotor/rotor_480.vtk"
    Patch     : "/work/job.5464063/sample/VTK/stator/stator_480.vtk"
    Patch     : "/work/job.5464063/sample/VTK/front/front_480.vtk"
    Patch     : "/work/job.5464063/sample/VTK/back/back_480.vtk"
    surfScalarFields  : phi phiAlpha
Time: 2
    volScalarFields            : p alpha.water p_rgh
    volVectorFields            : U

    Internal  : "/work/job.5464063/sample/VTK/sample_498.vtk"
    Patch     : "/work/job.5464063/sample/VTK/rotor/rotor_498.vtk"
    Patch     : "/work/job.5464063/sample/VTK/stator/stator_498.vtk"
    Patch     : "/work/job.5464063/sample/VTK/front/front_498.vtk"
    Patch     : "/work/job.5464063/sample/VTK/back/back_498.vtk"
    surfScalarFields  : phi phiAlpha
End

