/*---------------------------------------------------------------------------*\
| =========                 |                                                 |
| \\      /  F ield         | OpenFOAM: The Open Source CFD Toolbox           |
|  \\    /   O peration     | Version:  v1606+                                |
|   \\  /    A nd           | Web:      www.OpenFOAM.com                      |
|    \\/     M anipulation  |                                                 |
\*---------------------------------------------------------------------------*/
Build  : v1606+
Exec   : interDyMFoam
Date   : Oct 20 2016
Time   : 04:13:19
Host   : "79ba4d3dd43f"
PID    : 372
Case   : /openfoam/ras/floatingObject
nProcs : 1
sigFpe : Enabling floating point exception trapping (FOAM_SIGFPE).
fileModificationChecking : Monitoring run-time modified files using timeStampMaster
allowSystemOperations : Allowing user-supplied system call operations

// * * * * * * * * * * * * * * * * * * * * * * * * * * * * * * * * * * * * * //
Create time

Create mesh for time = 0

Using #calcEntry at line 50 in file "/openfoam/ras/floatingObject/constant/dynamicMeshDict.rigidBodyMotionCoeffs.bodies.floatingObject"
Using #codeStream with "/openfoam/ras/floatingObject/dynamicCode/platforms/linux64GccDPInt32Opt/lib/libcodeStream_23afbdb49efd3f7748d81ebd6df2c1cbbcaeaa5e.so"
Creating new library in "dynamicCode/_23afbdb49efd3f7748d81ebd6df2c1cbbcaeaa5e/platforms/linux64GccDPInt32Opt/lib/libcodeStream_23afbdb49efd3f7748d81ebd6df2c1cbbcaeaa5e.so"
Invoking "wmake -s libso /openfoam/ras/floatingObject/dynamicCode/_23afbdb49efd3f7748d81ebd6df2c1cbbcaeaa5e"
wmakeLnInclude: linking include files to ./lnInclude
Making dependency list for source file codeStreamTemplate.C
'/openfoam/ras/floatingObject/dynamicCode/_23afbdb49efd3f7748d81ebd6df2c1cbbcaeaa5e/../platforms/linux64GccDPInt32Opt/lib/libcodeStream_23afbdb49efd3f7748d81ebd6df2c1cbbcaeaa5e.so' is up to date.
Selecting dynamicFvMesh dynamicMotionSolverFvMesh
Using #calcEntry at line 50 in file "/openfoam/ras/floatingObject/constant/dynamicMeshDict.rigidBodyMotionCoeffs.bodies.floatingObject"
Selecting motion solver: rigidBodyMotion
Using #calcEntry at line 50 in file "/openfoam/ras/floatingObject/constant/dynamicMeshDict.rigidBodyMotionCoeffs.bodies.floatingObject"
Selecting rigidBodySolver Newmark

PIMPLE: no residual control data found. Calculations will employ 3 corrector loops

Reading field p_rgh

Reading field U

Reading/calculating face flux field phi

Reading transportProperties

Selecting incompressible transport model Newtonian
Selecting incompressible transport model Newtonian
Selecting turbulence model type RAS
Selecting RAS turbulence model kEpsilon
kEpsilonCoeffs
{
    Cmu             0.09;
    C1              1.44;
    C2              1.92;
    C3              -0.33;
    sigmak          1;
    sigmaEps        1.3;
}


Reading g

Reading hRef
Calculating field g.h

No MRF models present

No finite volume options present

GAMGPCG:  Solving for pcorr, Initial residual = 0, Final residual = 0, No Iterations 0
time step continuity errors : sum local = 0, global = 0, cumulative = 0
Reading/calculating face velocity Uf

Courant Number mean: 0 max: 0

Starting time loop

Courant Number mean: 0 max: 0
Interface Courant Number mean: 0 max: 0
deltaT = 0.0111111111111
Time = 0.0111111

PIMPLE: iteration 1
Rigid-body motion of the floatingObject
    Centre of rotation: (0.5 0.45 0.1)
    Orientation: (1 0 -5.633479613e-19 0 1 0 5.633479613e-19 0 1)
    Linear velocity: (0 3.68339618066e-18 0)
    Angular velocity: (0 1.01402633034e-16 0)
Execution time for mesh.update() = 0.03 s
GAMGPCG:  Solving for pcorr, Initial residual = 0, Final residual = 0, No Iterations 0
time step continuity errors : sum local = 0, global = 0, cumulative = 0
smoothSolver:  Solving for alpha.water, Initial residual = 0, Final residual = 0, No Iterations 0
Phase-1 volume fraction = 0.531099656357  Min(alpha.water) = 0  Max(alpha.water) = 1
MULES: Correcting alpha.water
MULES: Correcting alpha.water
Phase-1 volume fraction = 0.531099656357  Min(alpha.water) = 0  Max(alpha.water) = 1
GAMG:  Solving for p_rgh, Initial residual = 1, Final residual = 0.00594820810609, No Iterations 1
time step continuity errors : sum local = 0.00275040113865, global = -0.00222858925614, cumulative = -0.00222858925614
PIMPLE: iteration 2
Rigid-body motion of the floatingObject
    Centre of rotation: (0.5 0.449984453491 0.1)
    Orientation: (0.999999999963 0 8.6494015107e-06 0 1 0 -8.6494015107e-06 0 0.999999999963)
    Linear velocity: (0 -0.00279837161427 0)
    Angular velocity: (0 -0.00155689227194 0)
Execution time for mesh.update() = 0.1 s
GAMGPCG:  Solving for pcorr, Initial residual = 1, Final residual = 8.71303123631e-07, No Iterations 6
time step continuity errors : sum local = 2.42434736847e-09, global = -1.04331988632e-09, cumulative = -0.00222859029946
smoothSolver:  Solving for alpha.water, Initial residual = 0.000140330727756, Final residual = 8.8555546343e-13, No Iterations 2
Phase-1 volume fraction = 0.531099656358  Min(alpha.water) = 0  Max(alpha.water) = 1.00003798519
Applying the previous iteration compression flux
MULES: Correcting alpha.water
MULES: Correcting alpha.water
MULES: Correcting alpha.water
Phase-1 volume fraction = 0.531099656358  Min(alpha.water) = -2.81285668701e-13  Max(alpha.water) = 1.00003798519
GAMG:  Solving for p_rgh, Initial residual = 0.000929674113227, Final residual = 9.18679682354e-06, No Iterations 4
time step continuity errors : sum local = 0.000183568822545, global = -0.000183176457025, cumulative = -0.00241176675649
PIMPLE: iteration 3
Rigid-body motion of the floatingObject
    Centre of rotation: (0.5 0.449998918123 0.1)
    Orientation: (0.999999999997 0 2.63156360242e-06 0 1 0 -2.63156360242e-06 0 0.999999999997)
    Linear velocity: (0 -0.000194737823652 0)
    Angular velocity: (0 -0.000473681448436 0)
Execution time for mesh.update() = 0.09 s
GAMGPCG:  Solving for pcorr, Initial residual = 1, Final residual = 1.44117590928e-06, No Iterations 5
time step continuity errors : sum local = 3.21332426082e-10, global = 1.85876935753e-10, cumulative = -0.00241176657061
smoothSolver:  Solving for alpha.water, Initial residual = 3.60703646349e-05, Final residual = 5.32242505764e-09, No Iterations 1
Phase-1 volume fraction = 0.53109965787  Min(alpha.water) = 0  Max(alpha.water) = 1.00000774847
Applying the previous iteration compression flux
MULES: Correcting alpha.water
MULES: Correcting alpha.water
MULES: Correcting alpha.water
Phase-1 volume fraction = 0.53109965787  Min(alpha.water) = -4.56973905218e-11  Max(alpha.water) = 1.00000774847
GAMGPCG:  Solving for p_rgh, Initial residual = 0.000289979049062, Final residual = 2.54265383261e-09, No Iterations 4
time step continuity errors : sum local = 9.22151002239e-08, global = -4.29274257604e-09, cumulative = -0.00241177086335
smoothSolver:  Solving for epsilon, Initial residual = 0.0124524704748, Final residual = 6.9837179001e-07, No Iterations 4
smoothSolver:  Solving for k, Initial residual = 0.999999999997, Final residual = 7.39740236826e-07, No Iterations 7
ExecutionTime = 0.58 s  ClockTime = 5 s

Courant Number mean: 0.00309262074903 max: 0.12118450379
Interface Courant Number mean: 0.000241225352138 max: 0.12118450379
deltaT = 0.0126984126984
Time = 0.0238095

PIMPLE: iteration 1
Rigid-body motion of the floatingObject
    Centre of rotation: (0.5 0.449991330088 0.1)
    Orientation: (0.999999999859 0 1.68197741615e-05 0 1 0 -1.68197741615e-05 0 0.999999999859)
    Linear velocity: (0 -0.00100037778192 0)
    Angular velocity: (0 -0.00176096171475 0)
Execution time for mesh.update() = 0.31 s
GAMGPCG:  Solving for pcorr, Initial residual = 1, Final residual = 2.80403844258e-06, No Iterations 5
time step continuity errors : sum local = 2.93227519569e-11, global = 3.34755041162e-12, cumulative = -0.00241177086001
smoothSolver:  Solving for alpha.water, Initial residual = 0.000261453535654, Final residual = 9.10384111261e-11, No Iterations 2
Phase-1 volume fraction = 0.531099657782  Min(alpha.water) = 0  Max(alpha.water) = 1.00000775852
Applying the previous iteration compression flux
MULES: Correcting alpha.water
MULES: Correcting alpha.water
MULES: Correcting alpha.water
Phase-1 volume fraction = 0.531099657782  Min(alpha.water) = 0  Max(alpha.water) = 1.00011160805
GAMG:  Solving for p_rgh, Initial residual = 0.000982744360894, Final residual = 4.65562136093e-06, No Iterations 2
time step continuity errors : sum local = 0.000128165434973, global = -1.21848929168e-06, cumulative = -0.0024129893493
PIMPLE: iteration 2
Rigid-body motion of the floatingObject
    Centre of rotation: (0.5 0.44999709735 0.1)
    Orientation: (0.999999999901 0 1.40672057703e-05 0 1 0 -1.40672057703e-05 0 0.999999999901)
    Linear velocity: (0 -9.20339251184e-05 0)
    Angular velocity: (0 -0.00132743219308 0)
Execution time for mesh.update() = 0.02 s
GAMGPCG:  Solving for pcorr, Initial residual = 1, Final residual = 2.04721886518e-06, No Iterations 5
time step continuity errors : sum local = 3.07668817656e-10, global = -1.17593996935e-10, cumulative = -0.00241298946689
smoothSolver:  Solving for alpha.water, Initial residual = 7.32612945805e-05, Final residual = 4.68537940338e-11, No Iterations 2
Phase-1 volume fraction = 0.531099657824  Min(alpha.water) = 0  Max(alpha.water) = 1.0000077585
Applying the previous iteration compression flux
MULES: Correcting alpha.water
MULES: Correcting alpha.water
MULES: Correcting alpha.water
Phase-1 volume fraction = 0.531099657824  Min(alpha.water) = -3.31413977963e-13  Max(alpha.water) = 1.00012231427
GAMG:  Solving for p_rgh, Initial residual = 0.000254768161831, Final residual = 2.11224943063e-06, No Iterations 2
time step continuity errors : sum local = 5.77868812921e-05, global = 4.8138000015e-06, cumulative = -0.00240817566689
PIMPLE: iteration 3
Rigid-body motion of the floatingObject
    Centre of rotation: (0.5 0.449992916288 0.1)
    Orientation: (0.999999999896 0 1.43915287962e-05 0 1 0 -1.43915287962e-05 0 0.999999999896)
    Linear velocity: (0 -0.000750551157211 0)
    Angular velocity: (0 -0.00137851306966 0)
Execution time for mesh.update() = 0.02 s
GAMGPCG:  Solving for pcorr, Initial residual = 1, Final residual = 3.83171900702e-06, No Iterations 5
time step continuity errors : sum local = 3.08110712634e-10, global = 2.70781728302e-11, cumulative = -0.00240817563981
smoothSolver:  Solving for alpha.water, Initial residual = 5.2925470273e-05, Final residual = 1.65946100046e-11, No Iterations 2
Phase-1 volume fraction = 0.531099657864  Min(alpha.water) = 0  Max(alpha.water) = 1.00000775852
Applying the previous iteration compression flux
MULES: Correcting alpha.water
MULES: Correcting alpha.water
MULES: Correcting alpha.water
Phase-1 volume fraction = 0.531099657864  Min(alpha.water) = -7.08628519943e-11  Max(alpha.water) = 1.00012386846
GAMGPCG:  Solving for p_rgh, Initial residual = 7.04726116714e-05, Final residual = 2.51859342635e-09, No Iterations 3
time step continuity errors : sum local = 6.87873466852e-08, global = 1.18021963037e-08, cumulative = -0.00240816383762
smoothSolver:  Solving for epsilon, Initial residual = 0.0112220236426, Final residual = 1.06587323174e-07, No Iterations 4
smoothSolver:  Solving for k, Initial residual = 0.586196329842, Final residual = 9.98060726596e-08, No Iterations 6
ExecutionTime = 1.18 s  ClockTime = 5 s

Courant Number mean: 0.00564639996451 max: 0.178571751833
Interface Courant Number mean: 0.000530802577704 max: 0.156673807578
deltaT = 0.0126984126984
Time = 0.0365079

PIMPLE: iteration 1
Rigid-body motion of the floatingObject
    Centre of rotation: (0.5 0.449981261978 0.1)
    Orientation: (0.999999999303 0 3.73367939599e-05 0 1 0 -3.73367939599e-05 0 0.999999999303)
    Linear velocity: (0 -0.00108500279024 0)
    Angular velocity: (0 -0.00223536619491 0)
Execution time for mesh.update() = 0.1 s
GAMGPCG:  Solving for pcorr, Initial residual = 1, Final residual = 1.69419223012e-06, No Iterations 5
time step continuity errors : sum local = 3.64443952446e-11, global = 9.83486017711e-13, cumulative = -0.00240816383663
smoothSolver:  Solving for alpha.water, Initial residual = 0.000340059770822, Final residual = 6.71376055115e-10, No Iterations 2
Phase-1 volume fraction = 0.531099657203  Min(alpha.water) = 0  Max(alpha.water) = 1.00012355859
Applying the previous iteration compression flux
MULES: Correcting alpha.water
MULES: Correcting alpha.water
MULES: Correcting alpha.water
Phase-1 volume fraction = 0.531099657203  Min(alpha.water) = -1.32569690936e-12  Max(alpha.water) = 1.00014411131
GAMG:  Solving for p_rgh, Initial residual = 0.0011314205956, Final residual = 2.72155855172e-06, No Iterations 2
time step continuity errors : sum local = 7.43206117422e-05, global = -7.4413983368e-06, cumulative = -0.00241560523497
PIMPLE: iteration 2
Rigid-body motion of the floatingObject
    Centre of rotation: (0.5 0.449976732668 0.1)
    Orientation: (0.999999999215 0 3.9623690157e-05 0 1 0 -3.9623690157e-05 0 0.999999999215)
    Linear velocity: (0 -0.00179836897866 0)
    Angular velocity: (0 -0.00259555234624 0)
Execution time for mesh.update() = 0.02 s
GAMGPCG:  Solving for pcorr, Initial residual = 1, Final residual = 3.34751293068e-06, No Iterations 5
time step continuity errors : sum local = 2.69353337234e-10, global = -1.05296118411e-11, cumulative = -0.0024156052455
smoothSolver:  Solving for alpha.water, Initial residual = 0.000125120883102, Final residual = 4.79971674831e-10, No Iterations 2
Phase-1 volume fraction = 0.531099657389  Min(alpha.water) = 0  Max(alpha.water) = 1.00012341336
Applying the previous iteration compression flux
MULES: Correcting alpha.water
MULES: Correcting alpha.water
MULES: Correcting alpha.water
Phase-1 volume fraction = 0.531099657389  Min(alpha.water) = -2.35430338317e-11  Max(alpha.water) = 1.00012322105
GAMG:  Solving for p_rgh, Initial residual = 0.000337956805525, Final residual = 2.11471351007e-06, No Iterations 2
time step continuity errors : sum local = 5.75480956266e-05, global = -3.68204286294e-06, cumulative = -0.00241928728836
PIMPLE: iteration 3
Rigid-body motion of the floatingObject
    Centre of rotation: (0.5 0.449977858174 0.1)
    Orientation: (0.999999999156 0 4.1091562141e-05 0 1 0 -4.1091562141e-05 0 0.999999999156)
    Linear velocity: (0 -0.00162110180281 0)
    Angular velocity: (0 -0.00282674218391 0)
Execution time for mesh.update() = 0.33 s
GAMGPCG:  Solving for pcorr, Initial residual = 1, Final residual = 6.91697123003e-06, No Iterations 5
time step continuity errors : sum local = 4.23893261609e-10, global = -1.83265456126e-10, cumulative = -0.00241928747163
smoothSolver:  Solving for alpha.water, Initial residual = 9.91037159811e-05, Final residual = 3.74837016893e-10, No Iterations 2
Phase-1 volume fraction = 0.531099658011  Min(alpha.water) = 0  Max(alpha.water) = 1.00012340628
Applying the previous iteration compression flux
MULES: Correcting alpha.water
MULES: Correcting alpha.water
MULES: Correcting alpha.water
Phase-1 volume fraction = 0.531099658011  Min(alpha.water) = -3.25058491579e-09  Max(alpha.water) = 1.00012321341
GAMGPCG:  Solving for p_rgh, Initial residual = 5.45002418568e-05, Final residual = 4.71859056253e-09, No Iterations 3
time step continuity errors : sum local = 1.28452159909e-07, global = -5.13753254893e-09, cumulative = -0.00241929260916
smoothSolver:  Solving for epsilon, Initial residual = 0.0060102998633, Final residual = 1.2299433335e-07, No Iterations 4
smoothSolver:  Solving for k, Initial residual = 0.318763009937, Final residual = 7.18686251789e-07, No Iterations 5
ExecutionTime = 1.89 s  ClockTime = 6 s

Courant Number mean: 0.00996758939479 max: 0.312444566687
Interface Courant Number mean: 0.000960480877097 max: 0.301488678619
deltaT = 0.0126984126984
Time = 0.0492063

PIMPLE: iteration 1
Rigid-body motion of the floatingObject
    Centre of rotation: (0.5 0.449948656354 0.1)
    Orientation: (0.999999995774 0 9.1935414977e-05 0 1 0 -9.1935414977e-05 0 0.999999995774)
    Linear velocity: (0 -0.00297818484024 0)
    Angular velocity: (0 -0.00518116465633 0)
Execution time for mesh.update() = 0.09 s
GAMGPCG:  Solving for pcorr, Initial residual = 1, Final residual = 4.16201300069e-06, No Iterations 5
time step continuity errors : sum local = 4.77869126658e-11, global = 2.30497249511e-12, cumulative = -0.00241929260686
smoothSolver:  Solving for alpha.water, Initial residual = 0.00051044319255, Final residual = 7.15897973302e-09, No Iterations 2
Phase-1 volume fraction = 0.53109965094  Min(alpha.water) = 0  Max(alpha.water) = 1.00012254955
Applying the previous iteration compression flux
MULES: Correcting alpha.water
MULES: Correcting alpha.water
MULES: Correcting alpha.water
Phase-1 volume fraction = 0.53109965094  Min(alpha.water) = -8.30056692619e-11  Max(alpha.water) = 1.00012254955
GAMG:  Solving for p_rgh, Initial residual = 0.00149739389721, Final residual = 5.81625844299e-06, No Iterations 2
time step continuity errors : sum local = 0.000158041365435, global = 3.82708063006e-06, cumulative = -0.00241546552623
PIMPLE: iteration 2
Rigid-body motion of the floatingObject
    Centre of rotation: (0.5 0.449957347678 0.1)
    Orientation: (0.999999996287 0 8.61760470936e-05 0 1 0 -8.61760470936e-05 0 0.999999996287)
    Linear velocity: (0 -0.00160930134849 0)
    Angular velocity: (0 -0.0042740642111 0)
Execution time for mesh.update() = 0.09 s
GAMGPCG:  Solving for pcorr, Initial residual = 1, Final residual = 5.18475456805e-06, No Iterations 5
time step continuity errors : sum local = 8.53148396809e-10, global = -1.63132098149e-10, cumulative = -0.00241546568936
smoothSolver:  Solving for alpha.water, Initial residual = 0.000198006854968, Final residual = 2.54897650151e-09, No Iterations 2
Phase-1 volume fraction = 0.531099658482  Min(alpha.water) = 0  Max(alpha.water) = 1.00012237613
Applying the previous iteration compression flux
MULES: Correcting alpha.water
MULES: Correcting alpha.water
MULES: Correcting alpha.water
Phase-1 volume fraction = 0.531099658482  Min(alpha.water) = -3.37229055937e-09  Max(alpha.water) = 1.00012237613
GAMG:  Solving for p_rgh, Initial residual = 0.000324399229088, Final residual = 2.16792876702e-06, No Iterations 2
time step continuity errors : sum local = 5.87520589955e-05, global = -4.99019953919e-06, cumulative = -0.0024204558889
PIMPLE: iteration 3
Rigid-body motion of the floatingObject
    Centre of rotation: (0.5 0.449950570357 0.1)
    Orientation: (0.999999996148 0 8.77752006871e-05 0 1 0 -8.77752006871e-05 0 0.999999996148)
    Linear velocity: (0 -0.00267672937714 0)
    Angular velocity: (0 -0.00452593090303 0)
Execution time for mesh.update() = 0.01 s
GAMGPCG:  Solving for pcorr, Initial residual = 1, Final residual = 1.34377175639e-06, No Iterations 6
time step continuity errors : sum local = 8.46102433975e-11, global = -6.04859021681e-11, cumulative = -0.00242045594938
smoothSolver:  Solving for alpha.water, Initial residual = 0.000223404032865, Final residual = 3.7602191004e-09, No Iterations 2
Phase-1 volume fraction = 0.531099659784  Min(alpha.water) = 0  Max(alpha.water) = 1.00012236759
Applying the previous iteration compression flux
MULES: Correcting alpha.water
MULES: Correcting alpha.water
MULES: Correcting alpha.water
Phase-1 volume fraction = 0.531099659784  Min(alpha.water) = -2.57026806123e-10  Max(alpha.water) = 1.00012236759
GAMGPCG:  Solving for p_rgh, Initial residual = 4.96172644101e-05, Final residual = 2.84391430474e-09, No Iterations 3
time step continuity errors : sum local = 7.71689236904e-08, global = -8.73093119024e-09, cumulative = -0.00242046468031
smoothSolver:  Solving for epsilon, Initial residual = 0.00503230793129, Final residual = 1.91985227397e-07, No Iterations 4
smoothSolver:  Solving for k, Initial residual = 0.215845164591, Final residual = 6.60866078996e-07, No Iterations 5
ExecutionTime = 2.36 s  ClockTime = 6 s

Courant Number mean: 0.0133062721345 max: 0.387472891735
Interface Courant Number mean: 0.00122947503941 max: 0.38127714158
deltaT = 0.0126984126984
Time = 0.0619048

PIMPLE: iteration 1
Rigid-body motion of the floatingObject
    Centre of rotation: (0.5 0.449913378878 0.1)
    Orientation: (0.999999988094 0 0.000154310697189 0 1 0 -0.000154310697189 0 0.999999988094)
    Linear velocity: (0 -0.00318092859145 0)
    Angular velocity: (0 -0.00595340987466 0)
Execution time for mesh.update() = 0.09 s
GAMGPCG:  Solving for pcorr, Initial residual = 1, Final residual = 4.31599987757e-06, No Iterations 5
time step continuity errors : sum local = 1.55589120058e-11, global = 1.35703655246e-12, cumulative = -0.00242046467896
smoothSolver:  Solving for alpha.water, Initial residual = 0.000619227506991, Final residual = 8.84083859675e-11, No Iterations 3
Phase-1 volume fraction = 0.531099659696  Min(alpha.water) = 0  Max(alpha.water) = 1.00012135302
Applying the previous iteration compression flux
MULES: Correcting alpha.water
MULES: Correcting alpha.water
MULES: Correcting alpha.water
Phase-1 volume fraction = 0.531099659696  Min(alpha.water) = -5.52427808808e-11  Max(alpha.water) = 1.00012135302
GAMG:  Solving for p_rgh, Initial residual = 0.00189049665122, Final residual = 8.97462644175e-06, No Iterations 2
time step continuity errors : sum local = 0.000242994928824, global = 1.08821776648e-05, cumulative = -0.00240958250129
PIMPLE: iteration 2
Rigid-body motion of the floatingObject
    Centre of rotation: (0.5 0.449907725499 0.1)
    Orientation: (0.999999987853 0 0.000155862515541 0 1 0 -0.000155862515541 0 0.999999987853)
    Linear velocity: (0 -0.00407133577714 0)
    Angular velocity: (0 -0.00619782126805 0)
Execution time for mesh.update() = 0.02 s
GAMGPCG:  Solving for pcorr, Initial residual = 1, Final residual = 4.49276860836e-06, No Iterations 5
time step continuity errors : sum local = 1.10435498096e-09, global = -4.6940195146e-10, cumulative = -0.00240958297069
smoothSolver:  Solving for alpha.water, Initial residual = 0.000363939369602, Final residual = 5.90269768157e-11, No Iterations 3
Phase-1 volume fraction = 0.531099659832  Min(alpha.water) = 0  Max(alpha.water) = 1.00012114496
Applying the previous iteration compression flux
MULES: Correcting alpha.water
MULES: Correcting alpha.water
MULES: Correcting alpha.water
Phase-1 volume fraction = 0.531099659832  Min(alpha.water) = -1.11712875763e-09  Max(alpha.water) = 1.00012114496
GAMG:  Solving for p_rgh, Initial residual = 0.000296669860603, Final residual = 2.22665820464e-06, No Iterations 2
time step continuity errors : sum local = 6.0006223918e-05, global = -8.12027847812e-06, cumulative = -0.00241770324917
PIMPLE: iteration 3
Rigid-body motion of the floatingObject
    Centre of rotation: (0.5 0.449908187464 0.1)
    Orientation: (0.999999987401 0 0.000158738791536 0 1 0 -0.000158738791536 0 0.999999987401)
    Linear velocity: (0 -0.00399857627377 0)
    Angular velocity: (0 -0.00665083474284 0)
Execution time for mesh.update() = 0.3 s
GAMGPCG:  Solving for pcorr, Initial residual = 1, Final residual = 7.29956111224e-06, No Iterations 5
time step continuity errors : sum local = 4.46452305286e-10, global = -2.14504428119e-10, cumulative = -0.00241770346368
smoothSolver:  Solving for alpha.water, Initial residual = 0.000380888632466, Final residual = 6.80666441822e-11, No Iterations 3
Phase-1 volume fraction = 0.531099659841  Min(alpha.water) = 0  Max(alpha.water) = 1.00012113548
Applying the previous iteration compression flux
MULES: Correcting alpha.water
MULES: Correcting alpha.water
MULES: Correcting alpha.water
Phase-1 volume fraction = 0.531099659841  Min(alpha.water) = -1.12199627239e-09  Max(alpha.water) = 1.00012113548
GAMGPCG:  Solving for p_rgh, Initial residual = 4.13084189404e-05, Final residual = 4.47559245779e-09, No Iterations 3
time step continuity errors : sum local = 1.20830071295e-07, global = -1.16708101479e-08, cumulative = -0.00241771513449
smoothSolver:  Solving for epsilon, Initial residual = 0.00546232454875, Final residual = 2.95158263594e-07, No Iterations 4
smoothSolver:  Solving for k, Initial residual = 0.164278360604, Final residual = 7.02551083613e-07, No Iterations 5
ExecutionTime = 3.04 s  ClockTime = 7 s

Courant Number mean: 0.0161606509628 max: 0.423301849275
Interface Courant Number mean: 0.00150703227236 max: 0.423301849275
deltaT = 0.0126984126984
Time = 0.0746032

PIMPLE: iteration 1
Rigid-body motion of the floatingObject
    Centre of rotation: (0.5 0.449845689922 0.1)
    Orientation: (0.999999965216 0 0.000263759041086 0 1 0 -0.000263759041086 0 0.999999965216)
    Linear velocity: (0 -0.00584478660925 0)
    Angular velocity: (0 -0.00988985493796 0)
Execution time for mesh.update() = 0.02 s
GAMGPCG:  Solving for pcorr, Initial residual = 1, Final residual = 5.03155063454e-06, No Iterations 5
time step continuity errors : sum local = 5.79840257231e-11, global = 3.78867110823e-12, cumulative = -0.0024177151307
smoothSolver:  Solving for alpha.water, Initial residual = 0.000714015630999, Final residual = 1.70216554736e-10, No Iterations 3
Phase-1 volume fraction = 0.531099659672  Min(alpha.water) = 0  Max(alpha.water) = 1.00011972442
Applying the previous iteration compression flux
MULES: Correcting alpha.water
MULES: Correcting alpha.water
MULES: Correcting alpha.water
Phase-1 volume fraction = 0.531099659672  Min(alpha.water) = -1.94266443568e-09  Max(alpha.water) = 1.00011972442
GAMG:  Solving for p_rgh, Initial residual = 0.00252922279114, Final residual = 1.06778384477e-05, No Iterations 2
time step continuity errors : sum local = 0.00028751075025, global = 2.23460952987e-05, cumulative = -0.0023953690354
PIMPLE: iteration 2
Rigid-body motion of the floatingObject
    Centre of rotation: (0.5 0.449857169695 0.1)
    Orientation: (0.999999967369 0 0.00025546583594 0 1 0 -0.00025546583594 0 0.999999967369)
    Linear velocity: (0 -0.00403672247381 0)
    Angular velocity: (0 -0.00858367508359 0)
Execution time for mesh.update() = 0.19 s
GAMGPCG:  Solving for pcorr, Initial residual = 1, Final residual = 3.641614108e-06, No Iterations 5
time step continuity errors : sum local = 1.06968316715e-09, global = -1.16034478878e-10, cumulative = -0.00239536915143
smoothSolver:  Solving for alpha.water, Initial residual = 0.00051721206629, Final residual = 1.66439135947e-10, No Iterations 3
Phase-1 volume fraction = 0.531099659973  Min(alpha.water) = 0  Max(alpha.water) = 1.00011950361
Applying the previous iteration compression flux
MULES: Correcting alpha.water
MULES: Correcting alpha.water
MULES: Correcting alpha.water
Phase-1 volume fraction = 0.531099659973  Min(alpha.water) = -5.80556421328e-09  Max(alpha.water) = 1.00011950361
GAMG:  Solving for p_rgh, Initial residual = 0.000292365245581, Final residual = 2.16260700701e-06, No Iterations 2
time step continuity errors : sum local = 5.80251509345e-05, global = -6.74197575019e-06, cumulative = -0.00240211112718
PIMPLE: iteration 3
Rigid-body motion of the floatingObject
    Centre of rotation: (0.5 0.449847858758 0.1)
    Orientation: (0.999999966688 0 0.00025811439026 0 1 0 -0.00025811439026 0 0.999999966688)
    Linear velocity: (0 -0.00550319503513 0)
    Angular velocity: (0 -0.00900082240271 0)
Execution time for mesh.update() = 0.19 s
GAMGPCG:  Solving for pcorr, Initial residual = 1, Final residual = 4.00502914e-06, No Iterations 5
time step continuity errors : sum local = 2.5599724512e-10, global = 8.11160147046e-11, cumulative = -0.00240211104607
smoothSolver:  Solving for alpha.water, Initial residual = 0.000525612626366, Final residual = 1.76945817973e-10, No Iterations 3
Phase-1 volume fraction = 0.53109965998  Min(alpha.water) = 0  Max(alpha.water) = 1.00011949155
Applying the previous iteration compression flux
MULES: Correcting alpha.water
MULES: Correcting alpha.water
MULES: Correcting alpha.water
Phase-1 volume fraction = 0.53109965998  Min(alpha.water) = -8.31638725273e-09  Max(alpha.water) = 1.00011949155
GAMGPCG:  Solving for p_rgh, Initial residual = 4.86706278175e-05, Final residual = 1.94551274062e-09, No Iterations 3
time step continuity errors : sum local = 5.23088592375e-08, global = -1.22071462327e-08, cumulative = -0.00240212325321
smoothSolver:  Solving for epsilon, Initial residual = 0.00690393714422, Final residual = 4.4058231143e-07, No Iterations 4
smoothSolver:  Solving for k, Initial residual = 0.133302196566, Final residual = 7.88186598923e-07, No Iterations 5
ExecutionTime = 3.69 s  ClockTime = 8 s

Courant Number mean: 0.0188373368482 max: 0.455739250825
Interface Courant Number mean: 0.00191845050222 max: 0.455739250825
deltaT = 0.0126984126984
Time = 0.0873016

PIMPLE: iteration 1
Rigid-body motion of the floatingObject
    Centre of rotation: (0.5 0.449773982489 0.1)
    Orientation: (0.999999926086 0 0.000384483237712 0 1 0 -0.000384483237712 0 0.999999926086)
    Linear velocity: (0 -0.00613231729198 0)
    Angular velocity: (0 -0.0109022721115 0)
Execution time for mesh.update() = 0.1 s
GAMGPCG:  Solving for pcorr, Initial residual = 1, Final residual = 1.04640868503e-06, No Iterations 5
time step continuity errors : sum local = 5.10111952027e-12, global = 3.91688739315e-13, cumulative = -0.00240212325282
smoothSolver:  Solving for alpha.water, Initial residual = 0.000802128243239, Final residual = 2.16133345305e-10, No Iterations 3
Phase-1 volume fraction = 0.531099659769  Min(alpha.water) = 0  Max(alpha.water) = 1.00011779643
Applying the previous iteration compression flux
MULES: Correcting alpha.water
MULES: Correcting alpha.water
MULES: Correcting alpha.water
Phase-1 volume fraction = 0.531099659769  Min(alpha.water) = -7.3928797412e-09  Max(alpha.water) = 1.00011779643
GAMG:  Solving for p_rgh, Initial residual = 0.00321799555673, Final residual = 1.10104180758e-05, No Iterations 2
time step continuity errors : sum local = 0.000295477965357, global = -1.57798350722e-05, cumulative = -0.00241790308789
PIMPLE: iteration 2
Rigid-body motion of the floatingObject
    Centre of rotation: (0.5 0.44976750548 0.1)
    Orientation: (0.999999926109 0 0.000384424332708 0 1 0 -0.000384424332708 0 0.999999926109)
    Linear velocity: (0 -0.00715244611755 0)
    Angular velocity: (0 -0.0108929945727 0)
Execution time for mesh.update() = 0.1 s
GAMGPCG:  Solving for pcorr, Initial residual = 1, Final residual = 2.33041938864e-06, No Iterations 5
time step continuity errors : sum local = 6.944840596e-10, global = 4.56383072975e-10, cumulative = -0.00241790263151
smoothSolver:  Solving for alpha.water, Initial residual = 0.000625981690492, Final residual = 3.14349897659e-10, No Iterations 3
Phase-1 volume fraction = 0.531099660216  Min(alpha.water) = 0  Max(alpha.water) = 1.00011758423
Applying the previous iteration compression flux
MULES: Correcting alpha.water
MULES: Correcting alpha.water
MULES: Correcting alpha.water
Phase-1 volume fraction = 0.531099660216  Min(alpha.water) = -8.24841529242e-08  Max(alpha.water) = 1.00011758423
GAMG:  Solving for p_rgh, Initial residual = 0.000288525441777, Final residual = 2.01709560903e-06, No Iterations 2
time step continuity errors : sum local = 5.37628798662e-05, global = -1.89352612829e-05, cumulative = -0.00243683789279
PIMPLE: iteration 3
Rigid-body motion of the floatingObject
    Centre of rotation: (0.5 0.449766918017 0.1)
    Orientation: (0.999999923993 0 0.000389889877609 0 1 0 -0.000389889877609 0 0.999999923993)
    Linear velocity: (0 -0.0072449716573 0)
    Angular velocity: (0 -0.0117538179591 0)
Execution time for mesh.update() = 0.09 s
GAMGPCG:  Solving for pcorr, Initial residual = 1, Final residual = 3.39937562714e-06, No Iterations 5
time step continuity errors : sum local = 1.88008328907e-10, global = 1.55098721712e-12, cumulative = -0.00243683789124
smoothSolver:  Solving for alpha.water, Initial residual = 0.000634941727077, Final residual = 3.18695017203e-10, No Iterations 3
Phase-1 volume fraction = 0.531099660217  Min(alpha.water) = 0  Max(alpha.water) = 1.00011757391
Applying the previous iteration compression flux
MULES: Correcting alpha.water
MULES: Correcting alpha.water
MULES: Correcting alpha.water
Phase-1 volume fraction = 0.531099660217  Min(alpha.water) = -5.8140367981e-09  Max(alpha.water) = 1.00011757391
GAMGPCG:  Solving for p_rgh, Initial residual = 3.78381899218e-05, Final residual = 6.49263010874e-09, No Iterations 3
time step continuity errors : sum local = 1.73617994659e-07, global = -3.53630202436e-08, cumulative = -0.00243687325426
smoothSolver:  Solving for epsilon, Initial residual = 0.0084842695302, Final residual = 6.2232757041e-07, No Iterations 4
smoothSolver:  Solving for k, Initial residual = 0.112461052644, Final residual = 8.78805816618e-07, No Iterations 5
ExecutionTime = 4.23 s  ClockTime = 8 s

Courant Number mean: 0.0213251327537 max: 0.484354131233
Interface Courant Number mean: 0.0023875527438 max: 0.469672365336
deltaT = 0.0126984126984
Time = 0.1

PIMPLE: iteration 1
Rigid-body motion of the floatingObject
    Centre of rotation: (0.5 0.449660651931 0.1)
    Orientation: (0.999999840298 0 0.000565157860567 0 1 0 -0.000565157860567 0 0.999999840298)
    Linear velocity: (0 -0.00949193680439 0)
    Angular velocity: (0 -0.0158508925395 0)
Execution time for mesh.update() = 0.02 s
GAMGPCG:  Solving for pcorr, Initial residual = 1, Final residual = 3.3581275687e-06, No Iterations 5
time step continuity errors : sum local = 4.75356864625e-11, global = -1.21447437491e-11, cumulative = -0.00243687326641
smoothSolver:  Solving for alpha.water, Initial residual = 0.000886449419647, Final residual = 2.65850288833e-10, No Iterations 3
Phase-1 volume fraction = 0.531099660014  Min(alpha.water) = 0  Max(alpha.water) = 1.00011553189
Applying the previous iteration compression flux
MULES: Correcting alpha.water
MULES: Correcting alpha.water
MULES: Correcting alpha.water
Phase-1 volume fraction = 0.531099660014  Min(alpha.water) = -7.54554207463e-09  Max(alpha.water) = 1.00011553189
GAMG:  Solving for p_rgh, Initial residual = 0.00385124215785, Final residual = 1.05725732716e-05, No Iterations 2
time step continuity errors : sum local = 0.00028238483956, global = -1.28396140435e-05, cumulative = -0.00244971288045
PIMPLE: iteration 2
Rigid-body motion of the floatingObject
    Centre of rotation: (0.5 0.449673660511 0.1)
    Orientation: (0.999999846348 0 0.000554350552018 0 1 0 -0.000554350552018 0 0.999999846348)
    Linear velocity: (0 -0.007443085434 0)
    Angular velocity: (0 -0.0141487411764 0)
Execution time for mesh.update() = 0.09 s
GAMGPCG:  Solving for pcorr, Initial residual = 1, Final residual = 2.55339989903e-06, No Iterations 5
time step continuity errors : sum local = 7.39597794762e-10, global = 4.11272184842e-10, cumulative = -0.00244971246918
smoothSolver:  Solving for alpha.water, Initial residual = 0.000685564886592, Final residual = 4.25679511451e-10, No Iterations 3
Phase-1 volume fraction = 0.531099660516  Min(alpha.water) = 0  Max(alpha.water) = 1.00011530641
Applying the previous iteration compression flux
MULES: Correcting alpha.water
MULES: Correcting alpha.water
MULES: Correcting alpha.water
Phase-1 volume fraction = 0.531099660516  Min(alpha.water) = -1.49214564437e-08  Max(alpha.water) = 1.00011530641
GAMG:  Solving for p_rgh, Initial residual = 0.000293385734892, Final residual = 1.87491335492e-06, No Iterations 2
time step continuity errors : sum local = 4.97657552202e-05, global = -1.65952885369e-05, cumulative = -0.00246630775772
PIMPLE: iteration 3
Rigid-body motion of the floatingObject
    Centre of rotation: (0.5 0.449662080437 0.1)
    Orientation: (0.999999843718 0 0.000559074279366 0 1 0 -0.000559074279366 0 0.999999843718)
    Linear velocity: (0 -0.0092669471426 0)
    Angular velocity: (0 -0.014892728349 0)
Execution time for mesh.update() = 0.02 s
GAMGPCG:  Solving for pcorr, Initial residual = 1, Final residual = 4.50273412061e-06, No Iterations 5
time step continuity errors : sum local = 2.5730698661e-10, global = -3.69165286663e-11, cumulative = -0.00246630779463
smoothSolver:  Solving for alpha.water, Initial residual = 0.000685868549764, Final residual = 4.1415736825e-10, No Iterations 3
Phase-1 volume fraction = 0.531099660499  Min(alpha.water) = 0  Max(alpha.water) = 1.00011529416
Applying the previous iteration compression flux
MULES: Correcting alpha.water
MULES: Correcting alpha.water
MULES: Correcting alpha.water
Phase-1 volume fraction = 0.531099660499  Min(alpha.water) = -6.16225057546e-09  Max(alpha.water) = 1.00011529416
GAMGPCG:  Solving for p_rgh, Initial residual = 5.22746944222e-05, Final residual = 2.90661639626e-09, No Iterations 3
time step continuity errors : sum local = 7.74202352141e-08, global = -5.12277129486e-10, cumulative = -0.00246630830691
smoothSolver:  Solving for epsilon, Initial residual = 0.0100206590539, Final residual = 7.99505760351e-07, No Iterations 4
smoothSolver:  Solving for k, Initial residual = 0.0972180652792, Final residual = 9.1724132578e-07, No Iterations 5
ExecutionTime = 5.1 s  ClockTime = 10 s

Courant Number mean: 0.0235169182922 max: 0.509028903032
Interface Courant Number mean: 0.00261664681535 max: 0.452458918582
deltaT = 0.0142857142857
Time = 0.114286

PIMPLE: iteration 1
Rigid-body motion of the floatingObject
    Centre of rotation: (0.5 0.449522229359 0.1)
    Orientation: (0.999999685223 0 0.000793444189955 0 1 0 -0.000793444189955 0 0.999999685223)
    Linear velocity: (0 -0.0103122038222 0)
    Angular velocity: (0 -0.0179190667113 0)
Execution time for mesh.update() = 0.02 s
GAMGPCG:  Solving for pcorr, Initial residual = 1, Final residual = 2.62182327797e-06, No Iterations 5
time step continuity errors : sum local = 2.40790674624e-11, global = -5.88071064012e-12, cumulative = -0.00246630831279
smoothSolver:  Solving for alpha.water, Initial residual = 0.00109706722985, Final residual = 6.5417578572e-10, No Iterations 3
Phase-1 volume fraction = 0.531099660182  Min(alpha.water) = 0  Max(alpha.water) = 1.00011249731
Applying the previous iteration compression flux
MULES: Correcting alpha.water
MULES: Correcting alpha.water
MULES: Correcting alpha.water
Phase-1 volume fraction = 0.531099660182  Min(alpha.water) = -3.30823438574e-06  Max(alpha.water) = 1.00011249731
GAMG:  Solving for p_rgh, Initial residual = 0.00417428276234, Final residual = 9.78692467706e-06, No Iterations 2
time step continuity errors : sum local = 0.000324455288961, global = -2.15403422451e-05, cumulative = -0.00248784865504
PIMPLE: iteration 2
Rigid-body motion of the floatingObject
    Centre of rotation: (0.5 0.449511586353 0.1)
    Orientation: (0.999999684252 0 0.000794667083532 0 1 0 -0.000794667083532 0 0.999999684252)
    Linear velocity: (0 -0.0118022245706 0)
    Angular velocity: (0 -0.018090271866 0)
Execution time for mesh.update() = 0.09 s
GAMGPCG:  Solving for pcorr, Initial residual = 1, Final residual = 2.56157078415e-06, No Iterations 5
time step continuity errors : sum local = 8.43380785231e-10, global = 2.75454932509e-10, cumulative = -0.00248784837958
smoothSolver:  Solving for alpha.water, Initial residual = 0.000796335905757, Final residual = 7.0881912055e-10, No Iterations 3
Phase-1 volume fraction = 0.531099660912  Min(alpha.water) = 0  Max(alpha.water) = 1.00011219243
Applying the previous iteration compression flux
MULES: Correcting alpha.water
MULES: Correcting alpha.water
MULES: Correcting alpha.water
Phase-1 volume fraction = 0.531099660912  Min(alpha.water) = -1.4456205302e-07  Max(alpha.water) = 1.00011219243
GAMG:  Solving for p_rgh, Initial residual = 0.000322692878001, Final residual = 1.76249051448e-06, No Iterations 2
time step continuity errors : sum local = 5.80930801572e-05, global = -1.95668433482e-05, cumulative = -0.00250741522293
PIMPLE: iteration 3
Rigid-body motion of the floatingObject
    Centre of rotation: (0.5 0.449512145328 0.1)
    Orientation: (0.999999678573 0 0.000801781777131 0 1 0 -0.000801781777131 0 0.999999678573)
    Linear velocity: (0 -0.0117239681063 0)
    Angular velocity: (0 -0.0190863292873 0)
Execution time for mesh.update() = 0.3 s
GAMGPCG:  Solving for pcorr, Initial residual = 1, Final residual = 3.88813874809e-06, No Iterations 5
time step continuity errors : sum local = 2.33071991647e-10, global = -5.50113466803e-11, cumulative = -0.00250741527794
smoothSolver:  Solving for alpha.water, Initial residual = 0.000807627988589, Final residual = 6.75784969144e-10, No Iterations 3
Phase-1 volume fraction = 0.531099660869  Min(alpha.water) = 0  Max(alpha.water) = 1.00011217897
Applying the previous iteration compression flux
MULES: Correcting alpha.water
MULES: Correcting alpha.water
MULES: Correcting alpha.water
Phase-1 volume fraction = 0.531099660869  Min(alpha.water) = -3.21934102737e-07  Max(alpha.water) = 1.00011217897
GAMGPCG:  Solving for p_rgh, Initial residual = 4.74438847517e-05, Final residual = 6.41919186145e-09, No Iterations 3
time step continuity errors : sum local = 2.12151319509e-07, global = -3.66292642668e-08, cumulative = -0.00250745190721
smoothSolver:  Solving for epsilon, Initial residual = 0.0125193592153, Final residual = 1.97999480115e-07, No Iterations 5
smoothSolver:  Solving for k, Initial residual = 0.0947060883843, Final residual = 2.24329813798e-07, No Iterations 6
ExecutionTime = 5.78 s  ClockTime = 11 s

Courant Number mean: 0.0282566902227 max: 0.497989202579
Interface Courant Number mean: 0.00287044545805 max: 0.439228207631
deltaT = 0.0171428571429
Time = 0.131429

PIMPLE: iteration 1
Rigid-body motion of the floatingObject
    Centre of rotation: (0.5 0.449280605611 0.1)
    Orientation: (0.999999292674 0 0.00118939104687 0 1 0 -0.00118939104687 0 0.999999292674)
    Linear velocity: (0 -0.0152889989468 0)
    Angular velocity: (0 -0.0261347748769 0)
Execution time for mesh.update() = 0.1 s
GAMGPCG:  Solving for pcorr, Initial residual = 1, Final residual = 1.22929681516e-06, No Iterations 5
time step continuity errors : sum local = 3.69272030806e-11, global = 1.07932943414e-11, cumulative = -0.00250745189641
smoothSolver:  Solving for alpha.water, Initial residual = 0.00143878544763, Final residual = 1.42798579188e-09, No Iterations 3
Phase-1 volume fraction = 0.531099660019  Min(alpha.water) = 0  Max(alpha.water) = 1.00010822761
Applying the previous iteration compression flux
MULES: Correcting alpha.water
MULES: Correcting alpha.water
MULES: Correcting alpha.water
Phase-1 volume fraction = 0.531099660019  Min(alpha.water) = -1.0215198621e-05  Max(alpha.water) = 1.00010253613
GAMG:  Solving for p_rgh, Initial residual = 0.00446495365078, Final residual = 1.25490089056e-05, No Iterations 2
time step continuity errors : sum local = 0.000580359184805, global = -4.64704347978e-05, cumulative = -0.00255392233121
PIMPLE: iteration 2
Rigid-body motion of the floatingObject
    Centre of rotation: (0.5 0.449305521901 0.1)
    Orientation: (0.999999316772 0 0.00116895519803 0 1 0 -0.00116895519803 0 0.999999316772)
    Linear velocity: (0 -0.0123820984467 0)
    Angular velocity: (0 -0.0237505908542 0)
Execution time for mesh.update() = 0.02 s
GAMGPCG:  Solving for pcorr, Initial residual = 1, Final residual = 3.37073771774e-06, No Iterations 5
time step continuity errors : sum local = 2.00427069857e-09, global = -3.76114369461e-10, cumulative = -0.00255392270732
smoothSolver:  Solving for alpha.water, Initial residual = 0.0011054367888, Final residual = 1.26559450663e-09, No Iterations 3
Phase-1 volume fraction = 0.531099661598  Min(alpha.water) = 0  Max(alpha.water) = 1.0001078056
Applying the previous iteration compression flux
MULES: Correcting alpha.water
MULES: Correcting alpha.water
MULES: Correcting alpha.water
Phase-1 volume fraction = 0.531099661598  Min(alpha.water) = -8.18687576273e-08  Max(alpha.water) = 1.00009555076
GAMG:  Solving for p_rgh, Initial residual = 0.000421431283441, Final residual = 1.90835162198e-06, No Iterations 2
time step continuity errors : sum local = 8.7832556266e-05, global = -2.5807657457e-05, cumulative = -0.00257973036478
PIMPLE: iteration 3
Rigid-body motion of the floatingObject
    Centre of rotation: (0.5 0.449282381129 0.1)
    Orientation: (0.999999305978 0 0.00117815239048 0 1 0 -0.00117815239048 0 0.999999305978)
    Linear velocity: (0 -0.0150818550755 0)
    Angular velocity: (0 -0.0248235973791 0)
Execution time for mesh.update() = 0.1 s
GAMGPCG:  Solving for pcorr, Initial residual = 1, Final residual = 3.70423606043e-06, No Iterations 5
time step continuity errors : sum local = 3.80576391048e-10, global = 8.00483556455e-11, cumulative = -0.00257973028473
smoothSolver:  Solving for alpha.water, Initial residual = 0.00111035212029, Final residual = 1.22343235014e-09, No Iterations 3
Phase-1 volume fraction = 0.531099661432  Min(alpha.water) = 0  Max(alpha.water) = 1.00010778231
Applying the previous iteration compression flux
MULES: Correcting alpha.water
MULES: Correcting alpha.water
MULES: Correcting alpha.water
Phase-1 volume fraction = 0.531099661432  Min(alpha.water) = -6.82529682027e-08  Max(alpha.water) = 1.00009307402
GAMGPCG:  Solving for p_rgh, Initial residual = 8.30356381062e-05, Final residual = 3.39095907815e-09, No Iterations 3
time step continuity errors : sum local = 1.56563417789e-07, global = -1.43033676188e-08, cumulative = -0.0025797445881
smoothSolver:  Solving for epsilon, Initial residual = 0.0159124523334, Final residual = 4.42612157409e-07, No Iterations 5
smoothSolver:  Solving for k, Initial residual = 0.096910291734, Final residual = 4.84314178142e-07, No Iterations 6
ExecutionTime = 6.26 s  ClockTime = 11 s

Courant Number mean: 0.0366633605065 max: 0.559978763594
Interface Courant Number mean: 0.00394360774193 max: 0.552014872276
deltaT = 0.0171428571429
Time = 0.148571

PIMPLE: iteration 1
Rigid-body motion of the floatingObject
    Centre of rotation: (0.5 0.449008805246 0.1)
    Orientation: (0.999998644322 0 0.00164661918982 0 1 0 -0.00164661918982 0 0.999998644322)
    Linear velocity: (0 -0.0168353312818 0)
    Angular velocity: (0 -0.0298309175567 0)
Execution time for mesh.update() = 0.02 s
GAMGPCG:  Solving for pcorr, Initial residual = 1, Final residual = 2.23905469771e-06, No Iterations 5
time step continuity errors : sum local = 4.22051200148e-11, global = -1.17649189874e-11, cumulative = -0.00257974459987
smoothSolver:  Solving for alpha.water, Initial residual = 0.00153825412986, Final residual = 1.05135341721e-09, No Iterations 3
Phase-1 volume fraction = 0.53109966083  Min(alpha.water) = -3.8599121473e-10  Max(alpha.water) = 1.0000886821
Applying the previous iteration compression flux
MULES: Correcting alpha.water
MULES: Correcting alpha.water
MULES: Correcting alpha.water
Phase-1 volume fraction = 0.53109966083  Min(alpha.water) = -1.23755685047e-05  Max(alpha.water) = 1.00008171453
GAMG:  Solving for p_rgh, Initial residual = 0.00411303385295, Final residual = 1.61509017657e-05, No Iterations 2
time step continuity errors : sum local = 0.000747716997603, global = -2.98684559391e-05, cumulative = -0.0026096130558
PIMPLE: iteration 2
Rigid-body motion of the floatingObject
    Centre of rotation: (0.5 0.448996073431 0.1)
    Orientation: (0.99999864651 0 0.00164528975394 0 1 0 -0.00164528975394 0 0.99999864651)
    Linear velocity: (0 -0.0183207097745 0)
    Angular velocity: (0 -0.0296758164945 0)
Execution time for mesh.update() = 0.31 s
GAMGPCG:  Solving for pcorr, Initial residual = 1, Final residual = 2.23535579911e-06, No Iterations 5
time step continuity errors : sum local = 1.67647001912e-09, global = -2.78664973622e-10, cumulative = -0.00260961333447
smoothSolver:  Solving for alpha.water, Initial residual = 0.00115257898325, Final residual = 8.39517597449e-10, No Iterations 3
Phase-1 volume fraction = 0.531099661946  Min(alpha.water) = -4.28125682892e-10  Max(alpha.water) = 1.00008827434
Applying the previous iteration compression flux
MULES: Correcting alpha.water
MULES: Correcting alpha.water
MULES: Correcting alpha.water
Phase-1 volume fraction = 0.531099661946  Min(alpha.water) = -1.69562345393e-06  Max(alpha.water) = 1.00008168288
GAMG:  Solving for p_rgh, Initial residual = 0.000356216356832, Final residual = 2.31632993977e-06, No Iterations 2
time step continuity errors : sum local = 0.000106559637564, global = -1.81948389198e-05, cumulative = -0.00262780817339
PIMPLE: iteration 3
Rigid-body motion of the floatingObject
    Centre of rotation: (0.5 0.448992202039 0.1)
    Orientation: (0.99999862529 0 0.00165813684772 0 1 0 -0.00165813684772 0 0.99999862529)
    Linear velocity: (0 -0.0187723720842 0)
    Angular velocity: (0 -0.0311746461469 0)
Execution time for mesh.update() = 0.02 s
GAMGPCG:  Solving for pcorr, Initial residual = 1, Final residual = 3.72562343176e-06, No Iterations 5
time step continuity errors : sum local = 4.14410484606e-10, global = -3.11816975175e-10, cumulative = -0.00262780848521
smoothSolver:  Solving for alpha.water, Initial residual = 0.00116697502582, Final residual = 7.59674102666e-10, No Iterations 3
Phase-1 volume fraction = 0.531099661839  Min(alpha.water) = -2.81226820258e-09  Max(alpha.water) = 1.00008825571
Applying the previous iteration compression flux
MULES: Correcting alpha.water
MULES: Correcting alpha.water
MULES: Correcting alpha.water
Phase-1 volume fraction = 0.531099661839  Min(alpha.water) = -9.64936874833e-07  Max(alpha.water) = 1.00008167701
GAMGPCG:  Solving for p_rgh, Initial residual = 5.59792241443e-05, Final residual = 9.85222569945e-09, No Iterations 3
time step continuity errors : sum local = 4.55295554531e-07, global = -5.93362153326e-08, cumulative = -0.00262786782142
smoothSolver:  Solving for epsilon, Initial residual = 0.0172409109125, Final residual = 3.59513207649e-07, No Iterations 5
smoothSolver:  Solving for k, Initial residual = 0.0831574971328, Final residual = 3.29519535397e-07, No Iterations 6
ExecutionTime = 6.9 s  ClockTime = 12 s

Courant Number mean: 0.0391839826085 max: 0.608810931529
Interface Courant Number mean: 0.00420461984809 max: 0.531635773182
deltaT = 0.0171428571429
Time = 0.165714

PIMPLE: iteration 1
Rigid-body motion of the floatingObject
    Centre of rotation: (0.5 0.448637094798 0.1)
    Orientation: (0.9999974374 0 0.00226388915208 0 1 0 -0.00226388915208 0 0.9999974374)
    Linear velocity: (0 -0.0226568061273 0)
    Angular velocity: (0 -0.039496592994 0)
Execution time for mesh.update() = 0.02 s
GAMGPCG:  Solving for pcorr, Initial residual = 1, Final residual = 1.93450158179e-06, No Iterations 5
time step continuity errors : sum local = 6.70733176318e-11, global = -2.29882187831e-11, cumulative = -0.00262786784441
smoothSolver:  Solving for alpha.water, Initial residual = 0.00161430652789, Final residual = 6.2616796029e-10, No Iterations 3
Phase-1 volume fraction = 0.531099661653  Min(alpha.water) = -5.38713144788e-10  Max(alpha.water) = 1.00008086385
Applying the previous iteration compression flux
MULES: Correcting alpha.water
MULES: Correcting alpha.water
MULES: Correcting alpha.water
Phase-1 volume fraction = 0.531099661653  Min(alpha.water) = -3.26602563451e-06  Max(alpha.water) = 1.00007872364
GAMG:  Solving for p_rgh, Initial residual = 0.00431774708575, Final residual = 1.62346161558e-05, No Iterations 2
time step continuity errors : sum local = 0.000752773253807, global = -4.36490496239e-05, cumulative = -0.00267151689403
PIMPLE: iteration 2
Rigid-body motion of the floatingObject
    Centre of rotation: (0.5 0.448666905547 0.1)
    Orientation: (0.999997499845 0 0.00223613604021 0 1 0 -0.00223613604021 0 0.999997499845)
    Linear velocity: (0 -0.0191788853464 0)
    Angular velocity: (0 -0.0362587217466 0)
Execution time for mesh.update() = 0.02 s
GAMGPCG:  Solving for pcorr, Initial residual = 1, Final residual = 1.89283698966e-06, No Iterations 5
time step continuity errors : sum local = 1.45303627788e-09, global = 3.49404143368e-10, cumulative = -0.00267151654463
smoothSolver:  Solving for alpha.water, Initial residual = 0.00113560297415, Final residual = 4.18295460715e-10, No Iterations 3
Phase-1 volume fraction = 0.531099662125  Min(alpha.water) = -5.41736121606e-10  Max(alpha.water) = 1.00008086582
Applying the previous iteration compression flux
MULES: Correcting alpha.water
MULES: Correcting alpha.water
MULES: Correcting alpha.water
Phase-1 volume fraction = 0.531099662125  Min(alpha.water) = -6.59876528465e-06  Max(alpha.water) = 1.0000788028
GAMG:  Solving for p_rgh, Initial residual = 0.000355334493498, Final residual = 2.29507689802e-06, No Iterations 2
time step continuity errors : sum local = 0.000105517420807, global = -2.68264674664e-05, cumulative = -0.0026983430121
PIMPLE: iteration 3
Rigid-body motion of the floatingObject
    Centre of rotation: (0.5 0.448633513159 0.1)
    Orientation: (0.999997463876 0 0.00225216382845 0 1 0 -0.00225216382845 0 0.999997463876)
    Linear velocity: (0 -0.0230746639481 0)
    Angular velocity: (0 -0.0381286350836 0)
Execution time for mesh.update() = 0.02 s
GAMGPCG:  Solving for pcorr, Initial residual = 1, Final residual = 3.0457252079e-06, No Iterations 5
time step continuity errors : sum local = 3.85633662992e-10, global = 3.87883325915e-11, cumulative = -0.00269834297331
smoothSolver:  Solving for alpha.water, Initial residual = 0.00115609289408, Final residual = 3.65942750298e-10, No Iterations 3
Phase-1 volume fraction = 0.531099662034  Min(alpha.water) = -5.2284666117e-10  Max(alpha.water) = 1.00008083556
Applying the previous iteration compression flux
MULES: Correcting alpha.water
MULES: Correcting alpha.water
MULES: Correcting alpha.water
Phase-1 volume fraction = 0.531099662034  Min(alpha.water) = -6.72012033774e-07  Max(alpha.water) = 1.00007878574
GAMGPCG:  Solving for p_rgh, Initial residual = 7.56952300598e-05, Final residual = 3.34577068096e-09, No Iterations 3
time step continuity errors : sum local = 1.54902347458e-07, global = -5.52328793476e-09, cumulative = -0.0026983484966
smoothSolver:  Solving for epsilon, Initial residual = 0.0187834175124, Final residual = 2.94870964856e-07, No Iterations 5
smoothSolver:  Solving for k, Initial residual = 0.0732507437963, Final residual = 2.14997610553e-07, No Iterations 6
ExecutionTime = 7.24 s  ClockTime = 12 s

Courant Number mean: 0.0418070482637 max: 0.607981552829
Interface Courant Number mean: 0.00410752769122 max: 0.486051285141
deltaT = 0.0171428571429
Time = 0.182857

PIMPLE: iteration 1
Rigid-body motion of the floatingObject
    Centre of rotation: (0.5 0.448218998544 0.1)
    Orientation: (0.999995620858 0 0.00295943659837 0 1 0 -0.00295943659837 0 0.999995620858)
    Linear velocity: (0 -0.0252853744941 0)
    Angular velocity: (0 -0.044386803276 0)
Execution time for mesh.update() = 0.02 s
GAMGPCG:  Solving for pcorr, Initial residual = 1, Final residual = 1.02509378323e-06, No Iterations 5
time step continuity errors : sum local = 2.45522995662e-11, global = 1.03322710077e-11, cumulative = -0.00269834848626
smoothSolver:  Solving for alpha.water, Initial residual = 0.00168109035673, Final residual = 3.28858963116e-10, No Iterations 3
Phase-1 volume fraction = 0.531099661973  Min(alpha.water) = 0  Max(alpha.water) = 1.00007780792
Applying the previous iteration compression flux
MULES: Correcting alpha.water
MULES: Correcting alpha.water
MULES: Correcting alpha.water
Phase-1 volume fraction = 0.531099661973  Min(alpha.water) = -6.57232480822e-05  Max(alpha.water) = 1.00007772684
GAMG:  Solving for p_rgh, Initial residual = 0.00426318463942, Final residual = 1.54620905748e-05, No Iterations 2
time step continuity errors : sum local = 0.000719051782895, global = -3.45920257121e-05, cumulative = -0.00273294051198
PIMPLE: iteration 2
Rigid-body motion of the floatingObject
    Centre of rotation: (0.5 0.448210508678 0.1)
    Orientation: (0.999995645486 0 0.0029511029209 0 1 0 -0.0029511029209 0 0.999995645486)
    Linear velocity: (0 -0.0262758588316 0)
    Angular velocity: (0 -0.0434145366581 0)
Execution time for mesh.update() = 0.18 s
GAMGPCG:  Solving for pcorr, Initial residual = 1, Final residual = 2.47806378023e-06, No Iterations 5
time step continuity errors : sum local = 1.78552585405e-09, global = 1.27871017592e-10, cumulative = -0.0027329403841
smoothSolver:  Solving for alpha.water, Initial residual = 0.00121746522714, Final residual = 1.95703571556e-10, No Iterations 3
Phase-1 volume fraction = 0.531099662184  Min(alpha.water) = 0  Max(alpha.water) = 1.00007777875
Applying the previous iteration compression flux
MULES: Correcting alpha.water
MULES: Correcting alpha.water
MULES: Correcting alpha.water
Phase-1 volume fraction = 0.531099662184  Min(alpha.water) = -2.55150185754e-05  Max(alpha.water) = 1.00007768755
GAMG:  Solving for p_rgh, Initial residual = 0.0003177911802, Final residual = 2.2450659928e-06, No Iterations 2
time step continuity errors : sum local = 0.000103318465903, global = -2.92897841977e-05, cumulative = -0.0027622301683
PIMPLE: iteration 3
Rigid-body motion of the floatingObject
    Centre of rotation: (0.5 0.448198608542 0.1)
    Orientation: (0.9999955899 0 0.00296987875032 0 1 0 -0.00296987875032 0 0.9999955899)
    Linear velocity: (0 -0.0276642080491 0)
    Angular velocity: (0 -0.0456050596901 0)
Execution time for mesh.update() = 0.02 s
GAMGPCG:  Solving for pcorr, Initial residual = 1, Final residual = 4.53039471665e-06, No Iterations 5
time step continuity errors : sum local = 5.08784336628e-10, global = -4.29310796575e-10, cumulative = -0.00276223059761
smoothSolver:  Solving for alpha.water, Initial residual = 0.00123448588273, Final residual = 1.57540378996e-10, No Iterations 3
Phase-1 volume fraction = 0.531099662123  Min(alpha.water) = 0  Max(alpha.water) = 1.00007775933
Applying the previous iteration compression flux
MULES: Correcting alpha.water
MULES: Correcting alpha.water
MULES: Correcting alpha.water
Phase-1 volume fraction = 0.531099662123  Min(alpha.water) = -2.30178713307e-05  Max(alpha.water) = 1.00007766365
GAMGPCG:  Solving for p_rgh, Initial residual = 5.02077302892e-05, Final residual = 6.4937835279e-10, No Iterations 4
time step continuity errors : sum local = 3.0115969128e-08, global = -8.61197515843e-10, cumulative = -0.00276223145881
smoothSolver:  Solving for epsilon, Initial residual = 0.0202847828662, Final residual = 2.93149245739e-07, No Iterations 5
smoothSolver:  Solving for k, Initial residual = 0.0654634862448, Final residual = 1.65473261768e-07, No Iterations 6
ExecutionTime = 7.74 s  ClockTime = 13 s

Courant Number mean: 0.0447814439922 max: 0.630323452084
Interface Courant Number mean: 0.00429674541569 max: 0.518693895137
deltaT = 0.0171428571429
Time = 0.2

PIMPLE: iteration 1
Rigid-body motion of the floatingObject
    Centre of rotation: (0.5 0.44769094068 0.1)
    Orientation: (0.999992657831 0 0.00383200775804 0 1 0 -0.00383200775804 0 0.999992657831)
    Linear velocity: (0 -0.0315637091634 0)
    Angular velocity: (0 -0.0549772426823 0)
Execution time for mesh.update() = 0.02 s
GAMGPCG:  Solving for pcorr, Initial residual = 1, Final residual = 3.31916364409e-06, No Iterations 5
time step continuity errors : sum local = 1.22432132417e-10, global = -1.50813757454e-11, cumulative = -0.00276223147389
smoothSolver:  Solving for alpha.water, Initial residual = 0.00172406426463, Final residual = 1.96937073361e-10, No Iterations 3
Phase-1 volume fraction = 0.531099662121  Min(alpha.water) = -1.19835614858e-05  Max(alpha.water) = 1.00007645219
Applying the previous iteration compression flux
MULES: Correcting alpha.water
MULES: Correcting alpha.water
MULES: Correcting alpha.water
Phase-1 volume fraction = 0.531099662121  Min(alpha.water) = -0.000176450931679  Max(alpha.water) = 1.00007637671
GAMG:  Solving for p_rgh, Initial residual = 0.00440313239776, Final residual = 1.41661185365e-05, No Iterations 2
time step continuity errors : sum local = 0.000660162523852, global = -2.62201139991e-05, cumulative = -0.00278845158789
PIMPLE: iteration 2
Rigid-body motion of the floatingObject
    Centre of rotation: (0.5 0.447713950761 0.1)
    Orientation: (0.999992757613 0 0.00380587976421 0 1 0 -0.00380587976421 0 0.999992757613)
    Linear velocity: (0 -0.0288791997669 0)
    Angular velocity: (0 -0.0519289545072 0)
Execution time for mesh.update() = 0.02 s
GAMGPCG:  Solving for pcorr, Initial residual = 1, Final residual = 2.13296799631e-06, No Iterations 5
time step continuity errors : sum local = 1.43618568533e-09, global = 2.06276766902e-10, cumulative = -0.00278845138161
smoothSolver:  Solving for alpha.water, Initial residual = 0.00127668775329, Final residual = 1.25948540241e-10, No Iterations 3
Phase-1 volume fraction = 0.531099662224  Min(alpha.water) = -1.295236759e-05  Max(alpha.water) = 1.00007645881
Applying the previous iteration compression flux
MULES: Correcting alpha.water
MULES: Correcting alpha.water
MULES: Correcting alpha.water
Phase-1 volume fraction = 0.531099662224  Min(alpha.water) = -2.97466371861e-06  Max(alpha.water) = 1.0000764117
GAMG:  Solving for p_rgh, Initial residual = 0.000319814594091, Final residual = 2.05947420043e-06, No Iterations 2
time step continuity errors : sum local = 9.50075478342e-05, global = -3.20584948443e-05, cumulative = -0.00282050987646
PIMPLE: iteration 3
Rigid-body motion of the floatingObject
    Centre of rotation: (0.5 0.447686390577 0.1)
    Orientation: (0.999992702779 0 0.00382026041262 0 1 0 -0.00382026041262 0 0.999992702779)
    Linear velocity: (0 -0.0320945545168 0)
    Angular velocity: (0 -0.0536067090183 0)
Execution time for mesh.update() = 0.02 s
GAMGPCG:  Solving for pcorr, Initial residual = 1, Final residual = 3.32866213812e-06, No Iterations 5
time step continuity errors : sum local = 3.75628049682e-10, global = 2.65861618702e-10, cumulative = -0.0028205096106
smoothSolver:  Solving for alpha.water, Initial residual = 0.00129889507824, Final residual = 9.92435850238e-11, No Iterations 3
Phase-1 volume fraction = 0.531099662191  Min(alpha.water) = -1.2944948645e-05  Max(alpha.water) = 1.00007642855
Applying the previous iteration compression flux
MULES: Correcting alpha.water
MULES: Correcting alpha.water
MULES: Correcting alpha.water
Phase-1 volume fraction = 0.531099662191  Min(alpha.water) = -2.28400705656e-06  Max(alpha.water) = 1.00007640021
GAMGPCG:  Solving for p_rgh, Initial residual = 5.83858769002e-05, Final residual = 2.81193087609e-09, No Iterations 3
time step continuity errors : sum local = 1.3064470618e-07, global = 8.15903346726e-09, cumulative = -0.00282050145156
smoothSolver:  Solving for epsilon, Initial residual = 0.0219459219059, Final residual = 2.88009443898e-07, No Iterations 5
smoothSolver:  Solving for k, Initial residual = 0.0595880750727, Final residual = 9.69224378796e-07, No Iterations 5
ExecutionTime = 8.54 s  ClockTime = 14 s

Courant Number mean: 0.04717540148 max: 0.635086361219
Interface Courant Number mean: 0.00459835444048 max: 0.500557027413
deltaT = 0.0166666666667
Time = 0.216667

PIMPLE: iteration 1
Rigid-body motion of the floatingObject
    Centre of rotation: (0.5 0.44713291317 0.1)
    Orientation: (0.999988613695 0 0.00477205193199 0 1 0 -0.00477205193199 0 0.999988613695)
    Linear velocity: (0 -0.0343227343601 0)
    Angular velocity: (0 -0.0606093316631 0)
Execution time for mesh.update() = 0.02 s
GAMGPCG:  Solving for pcorr, Initial residual = 1, Final residual = 2.82010123193e-06, No Iterations 5
time step continuity errors : sum local = 7.15453211866e-11, global = -3.35452598946e-12, cumulative = -0.00282050145492
smoothSolver:  Solving for alpha.water, Initial residual = 0.00171751983732, Final residual = 1.12391760917e-10, No Iterations 3
Phase-1 volume fraction = 0.531099662224  Min(alpha.water) = -1.10563069317e-06  Max(alpha.water) = 1.00007509585
Applying the previous iteration compression flux
MULES: Correcting alpha.water
MULES: Correcting alpha.water
MULES: Correcting alpha.water
Phase-1 volume fraction = 0.531099662224  Min(alpha.water) = -2.84547210266e-05  Max(alpha.water) = 1.00007508889
GAMG:  Solving for p_rgh, Initial residual = 0.00440193009597, Final residual = 1.31536694934e-05, No Iterations 2
time step continuity errors : sum local = 0.000582620356559, global = -5.92035372988e-06, cumulative = -0.00282642180865
PIMPLE: iteration 2
Rigid-body motion of the floatingObject
    Centre of rotation: (0.5 0.447117797269 0.1)
    Orientation: (0.99998859839 0 0.00477525802406 0 1 0 -0.00477525802406 0 0.99998859839)
    Linear velocity: (0 -0.0361366424094 0)
    Angular velocity: (0 -0.0609940670947 0)
Execution time for mesh.update() = 0.02 s
GAMGPCG:  Solving for pcorr, Initial residual = 1, Final residual = 7.69467501504e-06, No Iterations 5
time step continuity errors : sum local = 4.53450166004e-09, global = -3.87963799442e-09, cumulative = -0.00282642568829
smoothSolver:  Solving for alpha.water, Initial residual = 0.00120530915418, Final residual = 7.38635943043e-11, No Iterations 3
Phase-1 volume fraction = 0.531099662258  Min(alpha.water) = -9.62137479642e-07  Max(alpha.water) = 1.0000750623
Applying the previous iteration compression flux
MULES: Correcting alpha.water
MULES: Correcting alpha.water
MULES: Correcting alpha.water
Phase-1 volume fraction = 0.531099662258  Min(alpha.water) = -5.85538349483e-06  Max(alpha.water) = 1.00007505645
GAMG:  Solving for p_rgh, Initial residual = 0.000276912858456, Final residual = 1.88616950931e-06, No Iterations 2
time step continuity errors : sum local = 8.3008653549e-05, global = -2.07371964891e-05, cumulative = -0.00284716288477
PIMPLE: iteration 3
Rigid-body motion of the floatingObject
    Centre of rotation: (0.5 0.447120540548 0.1)
    Orientation: (0.99998856523 0 0.00478219714711 0 1 0 -0.00478219714711 0 0.99998856523)
    Linear velocity: (0 -0.0358074489629 0)
    Angular velocity: (0 -0.0618267713682 0)
Execution time for mesh.update() = 0.01 s
GAMGPCG:  Solving for pcorr, Initial residual = 1, Final residual = 7.49792169943e-06, No Iterations 5
time step continuity errors : sum local = 6.48138762702e-10, global = -4.829172192e-10, cumulative = -0.00284716336769
smoothSolver:  Solving for alpha.water, Initial residual = 0.00122423350251, Final residual = 6.13308350028e-11, No Iterations 3
Phase-1 volume fraction = 0.531099662243  Min(alpha.water) = -1.04533479586e-06  Max(alpha.water) = 1.00007506115
Applying the previous iteration compression flux
MULES: Correcting alpha.water
MULES: Correcting alpha.water
MULES: Correcting alpha.water
Phase-1 volume fraction = 0.531099662243  Min(alpha.water) = -6.27522095948e-06  Max(alpha.water) = 1.0000750562
GAMGPCG:  Solving for p_rgh, Initial residual = 4.00608446762e-05, Final residual = 5.98209311748e-09, No Iterations 3
time step continuity errors : sum local = 2.64320370898e-07, global = -1.49484407439e-08, cumulative = -0.00284717831613
smoothSolver:  Solving for epsilon, Initial residual = 0.0229294845998, Final residual = 2.78530803096e-07, No Iterations 5
smoothSolver:  Solving for k, Initial residual = 0.0534206902851, Final residual = 8.49991933726e-07, No Iterations 5
ExecutionTime = 8.88 s  ClockTime = 15 s

Courant Number mean: 0.048046559459 max: 0.607131155544
Interface Courant Number mean: 0.00432575790535 max: 0.503525015171
deltaT = 0.0166666666667
Time = 0.233333

PIMPLE: iteration 1
Rigid-body motion of the floatingObject
    Centre of rotation: (0.5 0.446494576189 0.1)
    Orientation: (0.999982632687 0 0.00589358324045 0 1 0 -0.00589358324045 0 0.999982632687)
    Linear velocity: (0 -0.0393082741479 0)
    Angular velocity: (0 -0.0715414667469 0)
Execution time for mesh.update() = 0.02 s
GAMGPCG:  Solving for pcorr, Initial residual = 1, Final residual = 1.1037751244e-06, No Iterations 5
time step continuity errors : sum local = 3.85036718736e-11, global = 1.73124140082e-11, cumulative = -0.00284717829882
smoothSolver:  Solving for alpha.water, Initial residual = 0.00176492586818, Final residual = 7.80845742379e-11, No Iterations 3
Phase-1 volume fraction = 0.531099662277  Min(alpha.water) = -4.36579766596e-06  Max(alpha.water) = 1.00007355428
Applying the previous iteration compression flux
MULES: Correcting alpha.water
MULES: Correcting alpha.water
MULES: Correcting alpha.water
Phase-1 volume fraction = 0.531099662277  Min(alpha.water) = -1.14799611801e-05  Max(alpha.water) = 1.00007242599
GAMG:  Solving for p_rgh, Initial residual = 0.00434428163283, Final residual = 1.37429659228e-05, No Iterations 2
time step continuity errors : sum local = 0.000608876069646, global = -1.68303481084e-05, cumulative = -0.00286400864693
PIMPLE: iteration 2
Rigid-body motion of the floatingObject
    Centre of rotation: (0.5 0.446505355407 0.1)
    Orientation: (0.999982678318 0 0.0058858359351 0 1 0 -0.0058858359351 0 0.999982678318)
    Linear velocity: (0 -0.0380147680271 0)
    Angular velocity: (0 -0.0706117739799 0)
Execution time for mesh.update() = 0.1 s
GAMGPCG:  Solving for pcorr, Initial residual = 1, Final residual = 1.277377253e-06, No Iterations 5
time step continuity errors : sum local = 7.84305720138e-10, global = -3.82459181543e-11, cumulative = -0.00286400868517
smoothSolver:  Solving for alpha.water, Initial residual = 0.00126757048617, Final residual = 4.86725006709e-11, No Iterations 3
Phase-1 volume fraction = 0.531099662287  Min(alpha.water) = -4.3742469619e-06  Max(alpha.water) = 1.00007355502
Applying the previous iteration compression flux
MULES: Correcting alpha.water
MULES: Correcting alpha.water
MULES: Correcting alpha.water
Phase-1 volume fraction = 0.531099662287  Min(alpha.water) = -1.36478433622e-06  Max(alpha.water) = 1.00007245812
GAMG:  Solving for p_rgh, Initial residual = 0.000260367797671, Final residual = 1.57978331778e-06, No Iterations 2
time step continuity errors : sum local = 6.98875087561e-05, global = -2.27350383535e-05, cumulative = -0.00288674372353
PIMPLE: iteration 3
Rigid-body motion of the floatingObject
    Centre of rotation: (0.5 0.44649833963 0.1)
    Orientation: (0.999982686564 0 0.00588443466824 0 1 0 -0.00588443466824 0 0.999982686564)
    Linear velocity: (0 -0.038856661204 0)
    Angular velocity: (0 -0.0704436190447 0)
Execution time for mesh.update() = 0.02 s
GAMGPCG:  Solving for pcorr, Initial residual = 1, Final residual = 1.74621706294e-06, No Iterations 5
time step continuity errors : sum local = 1.32048104101e-10, global = -1.75217524582e-11, cumulative = -0.00288674374105
smoothSolver:  Solving for alpha.water, Initial residual = 0.00127796449105, Final residual = 9.55356214916e-09, No Iterations 2
Phase-1 volume fraction = 0.531099667597  Min(alpha.water) = -4.32921322418e-06  Max(alpha.water) = 1.0000735478
Applying the previous iteration compression flux
MULES: Correcting alpha.water
MULES: Correcting alpha.water
MULES: Correcting alpha.water
Phase-1 volume fraction = 0.531099667597  Min(alpha.water) = -1.308829207e-06  Max(alpha.water) = 1.00007244236
GAMGPCG:  Solving for p_rgh, Initial residual = 3.80465813074e-05, Final residual = 2.54703999558e-09, No Iterations 3
time step continuity errors : sum local = 1.12895702527e-07, global = -1.27121484905e-08, cumulative = -0.0028867564532
smoothSolver:  Solving for epsilon, Initial residual = 0.0244601084706, Final residual = 3.1850379753e-07, No Iterations 5
smoothSolver:  Solving for k, Initial residual = 0.049807974614, Final residual = 8.82714323543e-07, No Iterations 5
ExecutionTime = 9.3 s  ClockTime = 15 s

Courant Number mean: 0.0498027621285 max: 0.612136703641
Interface Courant Number mean: 0.00433715577878 max: 0.483959816603
deltaT = 0.0166666666667
Time = 0.25

PIMPLE: iteration 1
Rigid-body motion of the floatingObject
    Centre of rotation: (0.5 0.445832647052 0.1)
    Orientation: (0.999974648185 0 0.00712060298038 0 1 0 -0.00712060298038 0 0.999974648185)
    Linear velocity: (0 -0.0410264481642 0)
    Angular velocity: (0 -0.0778997240739 0)
Execution time for mesh.update() = 0.1 s
GAMGPCG:  Solving for pcorr, Initial residual = 1, Final residual = 4.21415966625e-06, No Iterations 5
time step continuity errors : sum local = 1.09202328849e-10, global = 3.6286609234e-11, cumulative = -0.00288675641691
smoothSolver:  Solving for alpha.water, Initial residual = 0.00179327257158, Final residual = 3.89563239818e-11, No Iterations 3
Phase-1 volume fraction = 0.531099667614  Min(alpha.water) = -5.19296449739e-08  Max(alpha.water) = 1.00007088572
Applying the previous iteration compression flux
MULES: Correcting alpha.water
MULES: Correcting alpha.water
MULES: Correcting alpha.water
Phase-1 volume fraction = 0.531099667614  Min(alpha.water) = -3.01939482108e-05  Max(alpha.water) = 1.00007088525
GAMG:  Solving for p_rgh, Initial residual = 0.00429462858872, Final residual = 1.53200837261e-05, No Iterations 2
time step continuity errors : sum local = 0.000680322899741, global = -2.07431269915e-05, cumulative = -0.0029074995439
PIMPLE: iteration 2
Rigid-body motion of the floatingObject
    Centre of rotation: (0.5 0.445819742893 0.1)
    Orientation: (0.999974559931 0 0.00713298611075 0 1 0 -0.00713298611075 0 0.999974559931)
    Linear velocity: (0 -0.042574947254 0)
    Angular velocity: (0 -0.079385737457 0)
Execution time for mesh.update() = 0.09 s
GAMGPCG:  Solving for pcorr, Initial residual = 1, Final residual = 1.22156550198e-06, No Iterations 5
time step continuity errors : sum local = 8.37215298188e-10, global = -1.68217663673e-10, cumulative = -0.00290749971212
smoothSolver:  Solving for alpha.water, Initial residual = 0.00136268443415, Final residual = 7.68620694604e-09, No Iterations 2
Phase-1 volume fraction = 0.531099673174  Min(alpha.water) = -5.18523268277e-08  Max(alpha.water) = 1.00007085911
Applying the previous iteration compression flux
MULES: Correcting alpha.water
MULES: Correcting alpha.water
MULES: Correcting alpha.water
Phase-1 volume fraction = 0.531099673174  Min(alpha.water) = -2.35154063387e-05  Max(alpha.water) = 1.0000708587
GAMG:  Solving for p_rgh, Initial residual = 0.000236129896056, Final residual = 1.5610064708e-06, No Iterations 2
time step continuity errors : sum local = 6.91933031695e-05, global = -2.02705189434e-05, cumulative = -0.00292777023106
PIMPLE: iteration 3
Rigid-body motion of the floatingObject
    Centre of rotation: (0.5 0.4458271341 0.1)
    Orientation: (0.999974573692 0 0.0071310566604 0 1 0 -0.0071310566604 0 0.999974573692)
    Linear velocity: (0 -0.0416880024674 0)
    Angular velocity: (0 -0.0791541975256 0)
Execution time for mesh.update() = 0.02 s
GAMGPCG:  Solving for pcorr, Initial residual = 1, Final residual = 2.47662982088e-06, No Iterations 5
time step continuity errors : sum local = 1.86602489473e-10, global = -9.50539442749e-11, cumulative = -0.00292777032612
smoothSolver:  Solving for alpha.water, Initial residual = 0.0013669088222, Final residual = 6.56994264457e-09, No Iterations 2
Phase-1 volume fraction = 0.531099671705  Min(alpha.water) = -5.20075402314e-08  Max(alpha.water) = 1.00007086728
Applying the previous iteration compression flux
MULES: Correcting alpha.water
MULES: Correcting alpha.water
MULES: Correcting alpha.water
Phase-1 volume fraction = 0.531099671705  Min(alpha.water) = -1.74209115181e-05  Max(alpha.water) = 1.00007086691
GAMGPCG:  Solving for p_rgh, Initial residual = 3.4910667657e-05, Final residual = 1.62618694202e-09, No Iterations 3
time step continuity errors : sum local = 7.21638978864e-08, global = 6.69376321575e-09, cumulative = -0.00292776363235
smoothSolver:  Solving for epsilon, Initial residual = 0.0258330150343, Final residual = 3.43766486841e-07, No Iterations 5
smoothSolver:  Solving for k, Initial residual = 0.0467507542346, Final residual = 9.15541856663e-07, No Iterations 5
ExecutionTime = 9.78 s  ClockTime = 16 s

Courant Number mean: 0.0510534691968 max: 0.686481055867
Interface Courant Number mean: 0.00454087273022 max: 0.444813833318
deltaT = 0.0166666666667
Time = 0.266667

PIMPLE: iteration 1
Rigid-body motion of the floatingObject
    Centre of rotation: (0.5 0.445105595269 0.1)
    Orientation: (0.999963616575 0 0.00853027115181 0 1 0 -0.00853027115181 0 0.999963616575)
    Linear velocity: (0 -0.0448966572497 0)
    Angular velocity: (0 -0.0887567033129 0)
Execution time for mesh.update() = 0.05 s
GAMGPCG:  Solving for pcorr, Initial residual = 1, Final residual = 4.26924625601e-06, No Iterations 5
time step continuity errors : sum local = 1.44393263842e-10, global = 3.91587036988e-11, cumulative = -0.0029277635932
smoothSolver:  Solving for alpha.water, Initial residual = 0.00180274642911, Final residual = 7.03710462766e-09, No Iterations 2
Phase-1 volume fraction = 0.53109966812  Min(alpha.water) = -8.6734920909e-06  Max(alpha.water) = 1.00006910082
Applying the previous iteration compression flux
MULES: Correcting alpha.water
MULES: Correcting alpha.water
MULES: Correcting alpha.water
Phase-1 volume fraction = 0.53109966812  Min(alpha.water) = -1.52882114124e-05  Max(alpha.water) = 1.00006899061
GAMG:  Solving for p_rgh, Initial residual = 0.00422882710077, Final residual = 1.56728242943e-05, No Iterations 2
time step continuity errors : sum local = 0.000696123147317, global = -1.10833319203e-05, cumulative = -0.00293884692512
PIMPLE: iteration 2
Rigid-body motion of the floatingObject
    Centre of rotation: (0.5 0.445119339645 0.1)
    Orientation: (0.999963680062 0 0.00852282560306 0 1 0 -0.00852282560306 0 0.999963680062)
    Linear velocity: (0 -0.043247332077 0)
    Angular velocity: (0 -0.0878632049829 0)
Execution time for mesh.update() = 0.1 s
GAMGPCG:  Solving for pcorr, Initial residual = 1, Final residual = 5.03804777627e-06, No Iterations 5
time step continuity errors : sum local = 3.53702119994e-09, global = -9.25739634682e-10, cumulative = -0.00293884785086
smoothSolver:  Solving for alpha.water, Initial residual = 0.00128692206384, Final residual = 5.2907003135e-09, No Iterations 2
Phase-1 volume fraction = 0.531099675557  Min(alpha.water) = -1.07102101439e-05  Max(alpha.water) = 1.00006911354
Applying the previous iteration compression flux
MULES: Correcting alpha.water
MULES: Correcting alpha.water
MULES: Correcting alpha.water
Phase-1 volume fraction = 0.531099675557  Min(alpha.water) = -2.284980974e-06  Max(alpha.water) = 1.00006898059
GAMG:  Solving for p_rgh, Initial residual = 0.000236163797691, Final residual = 1.60136447022e-06, No Iterations 2
time step continuity errors : sum local = 7.08174855538e-05, global = -1.52452835562e-05, cumulative = -0.00295409313441
PIMPLE: iteration 3
Rigid-body motion of the floatingObject
    Centre of rotation: (0.5 0.445108205955 0.1)
    Orientation: (0.999963694369 0 0.0085211468555 0 1 0 -0.0085211468555 0 0.999963694369)
    Linear velocity: (0 -0.0445833748726 0)
    Angular velocity: (0 -0.08766174796 0)
Execution time for mesh.update() = 0.02 s
GAMGPCG:  Solving for pcorr, Initial residual = 1, Final residual = 6.31470937108e-06, No Iterations 5
time step continuity errors : sum local = 4.99642255744e-10, global = -4.75563168836e-11, cumulative = -0.00295409318197
smoothSolver:  Solving for alpha.water, Initial residual = 0.00129909988237, Final residual = 4.63150704154e-09, No Iterations 2
Phase-1 volume fraction = 0.531099674497  Min(alpha.water) = -1.11720416393e-05  Max(alpha.water) = 1.00006910167
Applying the previous iteration compression flux
MULES: Correcting alpha.water
MULES: Correcting alpha.water
MULES: Correcting alpha.water
Phase-1 volume fraction = 0.531099674497  Min(alpha.water) = -2.03516884529e-06  Max(alpha.water) = 1.00006896343
GAMGPCG:  Solving for p_rgh, Initial residual = 3.57218323961e-05, Final residual = 2.56560816515e-09, No Iterations 3
time step continuity errors : sum local = 1.13769399434e-07, global = -4.46853996277e-09, cumulative = -0.00295409765051
smoothSolver:  Solving for epsilon, Initial residual = 0.0271766834028, Final residual = 3.78634486095e-07, No Iterations 5
[...]
    Orientation: (0.99997973563 0 -0.00636618642483 0 1 0 0.00636618642483 0 0.99997973563)
    Linear velocity: (0 -0.0279058644979 0)
    Angular velocity: (0 -0.175819417392 0)
Execution time for mesh.update() = 0.03 s
GAMGPCG:  Solving for pcorr, Initial residual = 1, Final residual = 2.37461318558e-06, No Iterations 5
time step continuity errors : sum local = 1.52626116234e-09, global = -8.10528713446e-11, cumulative = -0.00143415710865
smoothSolver:  Solving for alpha.water, Initial residual = 0.000680463687457, Final residual = 3.48566296393e-11, No Iterations 2
Phase-1 volume fraction = 0.53109957006  Min(alpha.water) = -1.26571665682e-07  Max(alpha.water) = 1.00000100097
Applying the previous iteration compression flux
MULES: Correcting alpha.water
MULES: Correcting alpha.water
MULES: Correcting alpha.water
Phase-1 volume fraction = 0.53109957006  Min(alpha.water) = -1.26571665682e-07  Max(alpha.water) = 1.0000010578
GAMG:  Solving for p_rgh, Initial residual = 0.000139632767122, Final residual = 8.97774374756e-07, No Iterations 2
time step continuity errors : sum local = 5.82135417976e-05, global = -1.34464386123e-06, cumulative = -0.00143550175251
PIMPLE: iteration 3
Rigid-body motion of the floatingObject
    Centre of rotation: (0.5 0.443247857511 0.1)
    Orientation: (0.999979588585 0 -0.00638924198682 0 1 0 0.00638924198682 0 0.999979588585)
    Linear velocity: (0 -0.026995356764 0)
    Angular velocity: (0 -0.173513814301 0)
Execution time for mesh.update() = 0.02 s
GAMGPCG:  Solving for pcorr, Initial residual = 1, Final residual = 8.50808291745e-06, No Iterations 5
time step continuity errors : sum local = 5.68926800916e-10, global = -3.22822769116e-10, cumulative = -0.00143550207533
smoothSolver:  Solving for alpha.water, Initial residual = 0.000691576317108, Final residual = 2.92111256062e-11, No Iterations 2
Phase-1 volume fraction = 0.531099570066  Min(alpha.water) = -1.26349537376e-07  Max(alpha.water) = 1.00000100087
Applying the previous iteration compression flux
MULES: Correcting alpha.water
MULES: Correcting alpha.water
MULES: Correcting alpha.water
Phase-1 volume fraction = 0.531099570066  Min(alpha.water) = -1.26349537376e-07  Max(alpha.water) = 1.00000105864
GAMGPCG:  Solving for p_rgh, Initial residual = 1.89941445023e-05, Final residual = 7.86307144469e-10, No Iterations 3
time step continuity errors : sum local = 5.09574983242e-08, global = 1.16867118234e-08, cumulative = -0.00143549038862
smoothSolver:  Solving for epsilon, Initial residual = 0.00693121978785, Final residual = 2.11142933036e-07, No Iterations 4
smoothSolver:  Solving for k, Initial residual = 0.00765781858491, Final residual = 4.49130077641e-07, No Iterations 4
ExecutionTime = 185.96 s  ClockTime = 238 s

Courant Number mean: 0.0314102223779 max: 0.15818509819
Interface Courant Number mean: 0.00257794478055 max: 0.0882216115168
deltaT = 0.02
Time = 5.94

PIMPLE: iteration 1
Rigid-body motion of the floatingObject
    Centre of rotation: (0.5 0.442683922476 0.1)
    Orientation: (0.99999573482 0 -0.0029206749683 0 1 0 0.0029206749683 0 0.99999573482)
    Linear velocity: (0 -0.0293981467193 0)
    Angular velocity: (0 -0.173346819462 0)
Execution time for mesh.update() = 0.1 s
GAMGPCG:  Solving for pcorr, Initial residual = 1, Final residual = 3.04434692219e-06, No Iterations 5
time step continuity errors : sum local = 8.25365598385e-11, global = -3.10577868238e-11, cumulative = -0.00143549041968
smoothSolver:  Solving for alpha.water, Initial residual = 0.000962516557516, Final residual = 5.65884617919e-11, No Iterations 2
Phase-1 volume fraction = 0.531099570045  Min(alpha.water) = -1.16958095367e-07  Max(alpha.water) = 1.0000010219
Applying the previous iteration compression flux
MULES: Correcting alpha.water
MULES: Correcting alpha.water
MULES: Correcting alpha.water
Phase-1 volume fraction = 0.531099570045  Min(alpha.water) = -1.16958095367e-07  Max(alpha.water) = 1.00000129856
GAMG:  Solving for p_rgh, Initial residual = 0.00319890793407, Final residual = 1.10600737428e-05, No Iterations 2
time step continuity errors : sum local = 0.000718283106252, global = -1.26358631209e-05, cumulative = -0.0014481262828
PIMPLE: iteration 2
Rigid-body motion of the floatingObject
    Centre of rotation: (0.5 0.442678945805 0.1)
    Orientation: (0.999995791755 0 -0.00290111557603 0 1 0 0.00290111557603 0 0.999995791755)
    Linear velocity: (0 -0.02989581381 0)
    Angular velocity: (0 -0.175302766975 0)
Execution time for mesh.update() = 0.31 s
GAMGPCG:  Solving for pcorr, Initial residual = 1, Final residual = 2.4236508598e-06, No Iterations 5
time step continuity errors : sum local = 1.74970514902e-09, global = -1.76849629592e-10, cumulative = -0.00144812645965
smoothSolver:  Solving for alpha.water, Initial residual = 0.000735850302308, Final residual = 3.85167517367e-11, No Iterations 2
Phase-1 volume fraction = 0.531099570041  Min(alpha.water) = -1.17147975692e-07  Max(alpha.water) = 1.00000102187
Applying the previous iteration compression flux
MULES: Correcting alpha.water
MULES: Correcting alpha.water
MULES: Correcting alpha.water
Phase-1 volume fraction = 0.531099570041  Min(alpha.water) = -1.17147975692e-07  Max(alpha.water) = 1.00000125208
GAMG:  Solving for p_rgh, Initial residual = 0.000129382186692, Final residual = 9.07502472526e-07, No Iterations 2
time step continuity errors : sum local = 5.91683849877e-05, global = -2.05214661737e-06, cumulative = -0.00145017860626
PIMPLE: iteration 3
Rigid-body motion of the floatingObject
    Centre of rotation: (0.5 0.44269104011 0.1)
    Orientation: (0.999995712414 0 -0.0029283364647 0 1 0 0.0029283364647 0 0.999995712414)
    Linear velocity: (0 -0.02868638331 0)
    Angular velocity: (0 -0.172580666545 0)
Execution time for mesh.update() = 0.02 s
GAMGPCG:  Solving for pcorr, Initial residual = 1, Final residual = 6.07194937588e-07, No Iterations 6
time step continuity errors : sum local = 4.235694779e-11, global = -2.6468421203e-11, cumulative = -0.00145017863273
smoothSolver:  Solving for alpha.water, Initial residual = 0.000743797261062, Final residual = 3.35818793051e-11, No Iterations 2
Phase-1 volume fraction = 0.531099570047  Min(alpha.water) = -1.16805637029e-07  Max(alpha.water) = 1.00000102227
Applying the previous iteration compression flux
MULES: Correcting alpha.water
MULES: Correcting alpha.water
MULES: Correcting alpha.water
Phase-1 volume fraction = 0.531099570047  Min(alpha.water) = -1.16805637029e-07  Max(alpha.water) = 1.00000123339
GAMGPCG:  Solving for p_rgh, Initial residual = 2.07702828674e-05, Final residual = 9.4684234665e-10, No Iterations 3
time step continuity errors : sum local = 6.16146483573e-08, global = 8.92701293654e-09, cumulative = -0.00145016970572
smoothSolver:  Solving for epsilon, Initial residual = 0.00674070260633, Final residual = 2.01070523115e-07, No Iterations 4
smoothSolver:  Solving for k, Initial residual = 0.00740277384279, Final residual = 4.26778559881e-07, No Iterations 4
ExecutionTime = 186.69 s  ClockTime = 239 s

Courant Number mean: 0.0323826748853 max: 0.158302355123
Interface Courant Number mean: 0.00277829489495 max: 0.0924729637585
deltaT = 0.02
Time = 5.96

PIMPLE: iteration 1
Rigid-body motion of the floatingObject
    Centre of rotation: (0.5 0.442096232746 0.1)
    Orientation: (0.999999874084 0 0.000501829173669 0 1 0 -0.000501829173669 0 0.999999874084)
    Linear velocity: (0 -0.0307943531281 0)
    Angular velocity: (0 -0.170436317916 0)
Execution time for mesh.update() = 0.19 s
GAMGPCG:  Solving for pcorr, Initial residual = 1, Final residual = 2.86542572293e-06, No Iterations 5
time step continuity errors : sum local = 7.70004051518e-11, global = -4.85856483228e-11, cumulative = -0.00145016975431
smoothSolver:  Solving for alpha.water, Initial residual = 0.00100159917515, Final residual = 7.25560420384e-11, No Iterations 2
Phase-1 volume fraction = 0.531099570011  Min(alpha.water) = -1.07850245012e-07  Max(alpha.water) = 1.00000118595
Applying the previous iteration compression flux
MULES: Correcting alpha.water
MULES: Correcting alpha.water
MULES: Correcting alpha.water
Phase-1 volume fraction = 0.531099570011  Min(alpha.water) = -1.07850245012e-07  Max(alpha.water) = 1.00000106009
GAMG:  Solving for p_rgh, Initial residual = 0.00338962837652, Final residual = 1.19672906982e-05, No Iterations 2
time step continuity errors : sum local = 0.000779341857107, global = -8.77957455609e-06, cumulative = -0.00145894932886
PIMPLE: iteration 2
Rigid-body motion of the floatingObject
    Centre of rotation: (0.5 0.442094121234 0.1)
    Orientation: (0.999999864995 0 0.000519625183182 0 1 0 -0.000519625183182 0 0.999999864995)
    Linear velocity: (0 -0.0310055042863 0)
    Angular velocity: (0 -0.1722159191 0)
Execution time for mesh.update() = 0.03 s
GAMGPCG:  Solving for pcorr, Initial residual = 1, Final residual = 1.10423568849e-06, No Iterations 5
time step continuity errors : sum local = 8.62282245083e-10, global = 2.37612272612e-11, cumulative = -0.0014589493051
smoothSolver:  Solving for alpha.water, Initial residual = 0.000781813694605, Final residual = 4.1938315066e-11, No Iterations 2
Phase-1 volume fraction = 0.531099570023  Min(alpha.water) = -1.07795177475e-07  Max(alpha.water) = 1.00000118588
Applying the previous iteration compression flux
MULES: Correcting alpha.water
MULES: Correcting alpha.water
MULES: Correcting alpha.water
Phase-1 volume fraction = 0.531099570023  Min(alpha.water) = -1.07795177475e-07  Max(alpha.water) = 1.00000105277
GAMG:  Solving for p_rgh, Initial residual = 0.000116145977021, Final residual = 8.77595343836e-07, No Iterations 2
time step continuity errors : sum local = 5.72015870747e-05, global = -1.45378492503e-06, cumulative = -0.00146040309003
PIMPLE: iteration 3
Rigid-body motion of the floatingObject
    Centre of rotation: (0.5 0.442103380393 0.1)
    Orientation: (0.999999877961 0 0.000494042920605 0 1 0 -0.000494042920605 0 0.999999877961)
    Linear velocity: (0 -0.0300795883358 0)
    Angular velocity: (0 -0.169657692513 0)
Execution time for mesh.update() = 0.1 s
GAMGPCG:  Solving for pcorr, Initial residual = 1, Final residual = 4.38026331545e-06, No Iterations 5
time step continuity errors : sum local = 2.89265215317e-10, global = -9.55360022308e-11, cumulative = -0.00146040318556
smoothSolver:  Solving for alpha.water, Initial residual = 0.000786228324432, Final residual = 3.86769389206e-11, No Iterations 2
Phase-1 volume fraction = 0.531099570028  Min(alpha.water) = -1.07854732552e-07  Max(alpha.water) = 1.00000118635
Applying the previous iteration compression flux
MULES: Correcting alpha.water
MULES: Correcting alpha.water
MULES: Correcting alpha.water
Phase-1 volume fraction = 0.531099570028  Min(alpha.water) = -1.07854732552e-07  Max(alpha.water) = 1.00000106153
GAMGPCG:  Solving for p_rgh, Initial residual = 1.80500418498e-05, Final residual = 1.12575251473e-09, No Iterations 3
time step continuity errors : sum local = 7.34208929555e-08, global = 5.22769028644e-09, cumulative = -0.00146039795787
smoothSolver:  Solving for epsilon, Initial residual = 0.00657168822039, Final residual = 1.92119623319e-07, No Iterations 4
smoothSolver:  Solving for k, Initial residual = 0.00717467771364, Final residual = 4.06298293122e-07, No Iterations 4
ExecutionTime = 187.37 s  ClockTime = 239 s

Courant Number mean: 0.0330481645656 max: 0.157614668283
Interface Courant Number mean: 0.00299757889672 max: 0.0952078332398
deltaT = 0.02
Time = 5.98

PIMPLE: iteration 1
Rigid-body motion of the floatingObject
    Centre of rotation: (0.5 0.441483550126 0.1)
    Orientation: (0.999992605655 0 0.00384559955596 0 1 0 -0.00384559955596 0 0.999992605655)
    Linear velocity: (0 -0.0319034383995 0)
    Angular velocity: (0 -0.165498916872 0)
Execution time for mesh.update() = 0.32 s
GAMGPCG:  Solving for pcorr, Initial residual = 1, Final residual = 2.9604984626e-06, No Iterations 5
time step continuity errors : sum local = 8.04586642253e-11, global = -4.58478239185e-11, cumulative = -0.00146039800372
smoothSolver:  Solving for alpha.water, Initial residual = 0.00102927632954, Final residual = 9.09749535753e-11, No Iterations 2
Phase-1 volume fraction = 0.531099569973  Min(alpha.water) = -9.96680192202e-08  Max(alpha.water) = 1.00000104534
Applying the previous iteration compression flux
MULES: Correcting alpha.water
MULES: Correcting alpha.water
MULES: Correcting alpha.water
Phase-1 volume fraction = 0.531099569973  Min(alpha.water) = -9.96680192202e-08  Max(alpha.water) = 1.00000211164
GAMG:  Solving for p_rgh, Initial residual = 0.00352313948955, Final residual = 1.24532792758e-05, No Iterations 2
time step continuity errors : sum local = 0.000814110950226, global = -9.78973248048e-06, cumulative = -0.0014701877362
PIMPLE: iteration 2
Rigid-body motion of the floatingObject
    Centre of rotation: (0.5 0.441480156288 0.1)
    Orientation: (0.999992541162 0 0.00386233349237 0 1 0 -0.00386233349237 0 0.999992541162)
    Linear velocity: (0 -0.0322428222576 0)
    Angular velocity: (0 -0.167172322941 0)
Execution time for mesh.update() = 0.3 s
GAMGPCG:  Solving for pcorr, Initial residual = 1, Final residual = 1.06872741518e-06, No Iterations 5
time step continuity errors : sum local = 8.72314088675e-10, global = -3.62808425413e-11, cumulative = -0.00147018777248
smoothSolver:  Solving for alpha.water, Initial residual = 0.00081477896967, Final residual = 4.89230032155e-11, No Iterations 2
Phase-1 volume fraction = 0.531099570002  Min(alpha.water) = -9.91528810768e-08  Max(alpha.water) = 1.00000104533
Applying the previous iteration compression flux
MULES: Correcting alpha.water
MULES: Correcting alpha.water
MULES: Correcting alpha.water
Phase-1 volume fraction = 0.531099570002  Min(alpha.water) = -9.91528810768e-08  Max(alpha.water) = 1.00000160554
GAMG:  Solving for p_rgh, Initial residual = 0.000105550113063, Final residual = 8.59016497064e-07, No Iterations 2
time step continuity errors : sum local = 5.62158906221e-05, global = -2.27659914371e-06, cumulative = -0.00147246437162
PIMPLE: iteration 3
Rigid-body motion of the floatingObject
    Centre of rotation: (0.5 0.441490899209 0.1)
    Orientation: (0.999992634053 0 0.00383820796672 0 1 0 -0.00383820796672 0 0.999992634053)
    Linear velocity: (0 -0.0311685300679 0)
    Angular velocity: (0 -0.164759752493 0)
Execution time for mesh.update() = 0.1 s
GAMGPCG:  Solving for pcorr, Initial residual = 1, Final residual = 4.41122802698e-06, No Iterations 5
time step continuity errors : sum local = 2.90183012847e-10, global = -6.37069147546e-11, cumulative = -0.00147246443533
smoothSolver:  Solving for alpha.water, Initial residual = 0.000816585320453, Final residual = 4.42995273076e-11, No Iterations 2
Phase-1 volume fraction = 0.531099570009  Min(alpha.water) = -9.9622285479e-08  Max(alpha.water) = 1.0000010452
Applying the previous iteration compression flux
MULES: Correcting alpha.water
MULES: Correcting alpha.water
MULES: Correcting alpha.water
Phase-1 volume fraction = 0.531099570009  Min(alpha.water) = -9.9622285479e-08  Max(alpha.water) = 1.00000151326
GAMGPCG:  Solving for p_rgh, Initial residual = 1.84310557544e-05, Final residual = 8.53730527915e-10, No Iterations 3
time step continuity errors : sum local = 5.58413348024e-08, global = 3.84609989886e-10, cumulative = -0.00147246405072
smoothSolver:  Solving for epsilon, Initial residual = 0.00637904006777, Final residual = 1.82525863303e-07, No Iterations 4
smoothSolver:  Solving for k, Initial residual = 0.00693665238085, Final residual = 3.85938584194e-07, No Iterations 4
ExecutionTime = 188.37 s  ClockTime = 240 s

Courant Number mean: 0.0333687692914 max: 0.155292634964
Interface Courant Number mean: 0.00326781036858 max: 0.0964370404742
deltaT = 0.02
Time = 6

PIMPLE: iteration 1
Rigid-body motion of the floatingObject
    Centre of rotation: (0.5 0.440853322902 0.1)
    Orientation: (0.999974989807 0 0.00707246492 0 1 0 -0.00707246492 0 0.999974989807)
    Linear velocity: (0 -0.0325891007004 0)
    Angular velocity: (0 -0.158670896614 0)
Execution time for mesh.update() = 0.11 s
GAMGPCG:  Solving for pcorr, Initial residual = 1, Final residual = 2.21932260404e-06, No Iterations 5
time step continuity errors : sum local = 5.8880939574e-11, global = -1.95844220507e-11, cumulative = -0.00147246407031
smoothSolver:  Solving for alpha.water, Initial residual = 0.00104436767754, Final residual = 1.09930243336e-10, No Iterations 2
Phase-1 volume fraction = 0.531099569932  Min(alpha.water) = -9.21357862938e-08  Max(alpha.water) = 1.00000149709
Applying the previous iteration compression flux
MULES: Correcting alpha.water
MULES: Correcting alpha.water
MULES: Correcting alpha.water
Phase-1 volume fraction = 0.531099569932  Min(alpha.water) = -9.21357862938e-08  Max(alpha.water) = 1.00000149709
GAMG:  Solving for p_rgh, Initial residual = 0.00358375661549, Final residual = 1.27050452728e-05, No Iterations 2
time step continuity errors : sum local = 0.000831003403469, global = -7.00545865678e-06, cumulative = -0.00147946952896
PIMPLE: iteration 2
Rigid-body motion of the floatingObject
    Centre of rotation: (0.5 0.440850440518 0.1)
    Orientation: (0.999974864429 0 0.00709016993341 0 1 0 -0.00709016993341 0 0.999974864429)
    Linear velocity: (0 -0.0328773390416 0)
    Angular velocity: (0 -0.160441442348 0)
Execution time for mesh.update() = 0.02 s
GAMGPCG:  Solving for pcorr, Initial residual = 1, Final residual = 8.59208926758e-07, No Iterations 5
time step continuity errors : sum local = 7.15712670437e-10, global = 1.29132786311e-11, cumulative = -0.00147946951605
smoothSolver:  Solving for alpha.water, Initial residual = 0.000833932019894, Final residual = 5.77554066611e-11, No Iterations 2
Phase-1 volume fraction = 0.53109956998  Min(alpha.water) = -9.13176294447e-08  Max(alpha.water) = 1.00000149714
Applying the previous iteration compression flux
MULES: Correcting alpha.water
MULES: Correcting alpha.water
MULES: Correcting alpha.water
Phase-1 volume fraction = 0.53109956998  Min(alpha.water) = -9.13176294447e-08  Max(alpha.water) = 1.00000149714
GAMG:  Solving for p_rgh, Initial residual = 9.41577373669e-05, Final residual = 8.13293842982e-07, No Iterations 2
time step continuity errors : sum local = 5.32295443664e-05, global = -7.77082811902e-07, cumulative = -0.00148024659886
PIMPLE: iteration 3
Rigid-body motion of the floatingObject
    Centre of rotation: (0.5 0.440860707781 0.1)
    Orientation: (0.999975037144 0 0.00706576873831 0 1 0 -0.00706576873831 0 0.999975037144)
    Linear velocity: (0 -0.0318506127885 0)
    Angular velocity: (0 -0.158001261713 0)
Execution time for mesh.update() = 0.02 s
GAMGPCG:  Solving for pcorr, Initial residual = 1, Final residual = 1.35930530501e-06, No Iterations 5
time step continuity errors : sum local = 8.5090239387e-11, global = 2.33359977369e-11, cumulative = -0.00148024657552
smoothSolver:  Solving for alpha.water, Initial residual = 0.000834104773557, Final residual = 4.99690690371e-11, No Iterations 2
Phase-1 volume fraction = 0.531099569991  Min(alpha.water) = -9.21237600871e-08  Max(alpha.water) = 1.0000014972
Applying the previous iteration compression flux
MULES: Correcting alpha.water
MULES: Correcting alpha.water
MULES: Correcting alpha.water
Phase-1 volume fraction = 0.531099569991  Min(alpha.water) = -9.21237600871e-08  Max(alpha.water) = 1.0000016207
GAMGPCG:  Solving for p_rgh, Initial residual = 1.87039175541e-05, Final residual = 5.39094972008e-10, No Iterations 3
time step continuity errors : sum local = 3.53224492295e-08, global = 1.19689970006e-09, cumulative = -0.00148024537863
smoothSolver:  Solving for epsilon, Initial residual = 0.00616472451965, Final residual = 1.71763573141e-07, No Iterations 4
smoothSolver:  Solving for k, Initial residual = 0.00670298402271, Final residual = 3.63697671579e-07, No Iterations 4
ExecutionTime = 189.29 s  ClockTime = 242 s

End

