/*---------------------------------------------------------------------------*\
| =========                 |                                                 |
| \\      /  F ield         | OpenFOAM: The Open Source CFD Toolbox           |
|  \\    /   O peration     | Version:  2.4.0                                 |
|   \\  /    A nd           | Web:      www.OpenFOAM.org                      |
|    \\/     M anipulation  |                                                 |
\*---------------------------------------------------------------------------*/
Build  : 2.4.0-dcea1e13ff76
Exec   : icoFoam
Date   : Oct 24 2016
Time   : 10:29:55
Host   : "f01-009"
PID    : 20762
Case   : /work/job_icoFoam_cavity.5451471/cavity
nProcs : 1
fileModificationChecking : Monitoring run-time modified files using timeStampMaster
allowSystemOperations : Allowing user-supplied system call operations

// * * * * * * * * * * * * * * * * * * * * * * * * * * * * * * * * * * * * * //
Create time

Create mesh for time = 0

Reading transportProperties

Reading field p

Reading field U

Reading/calculating face flux field phi


Starting time loop

Time = 0.001

Courant Number mean: 0 max: 0
smoothSolver:  Solving for Ux, Initial residual = 1, Final residual = 9.58305e-06, No Iterations 6
smoothSolver:  Solving for Uy, Initial residual = 0, Final residual = 0, No Iterations 0
DICPCG:  Solving for p, Initial residual = 1, Final residual = 2.55683e-07, No Iterations 36
time step continuity errors : sum local = 1.2721e-10, global = -2.39552e-20, cumulative = -2.39552e-20
DICPCG:  Solving for p, Initial residual = 0.319212, Final residual = 7.93119e-07, No Iterations 34
time step continuity errors : sum local = 7.56818e-10, global = 1.2052e-20, cumulative = -1.19031e-20
ExecutionTime = 0.08 s  ClockTime = 0 s

Time = 0.002

Courant Number mean: 0.00910039 max: 0.0686619
smoothSolver:  Solving for Ux, Initial residual = 0.230014, Final residual = 4.27297e-06, No Iterations 6
smoothSolver:  Solving for Uy, Initial residual = 0.297262, Final residual = 8.78665e-06, No Iterations 6
DICPCG:  Solving for p, Initial residual = 0.175163, Final residual = 6.76513e-07, No Iterations 33
time step continuity errors : sum local = 6.07545e-10, global = 3.5089e-20, cumulative = 2.31859e-20
DICPCG:  Solving for p, Initial residual = 0.0912887, Final residual = 9.33731e-07, No Iterations 32
time step continuity errors : sum local = 8.82876e-10, global = -5.10949e-20, cumulative = -2.79091e-20
ExecutionTime = 0.09 s  ClockTime = 0 s

Time = 0.003

Courant Number mean: 0.0149226 max: 0.104556
smoothSolver:  Solving for Ux, Initial residual = 0.107934, Final residual = 2.20068e-06, No Iterations 6
smoothSolver:  Solving for Uy, Initial residual = 0.143325, Final residual = 4.59136e-06, No Iterations 6
DICPCG:  Solving for p, Initial residual = 0.0845515, Final residual = 3.58214e-07, No Iterations 31
time step continuity errors : sum local = 3.50451e-10, global = 7.75895e-21, cumulative = -2.01501e-20
DICPCG:  Solving for p, Initial residual = 0.0438969, Final residual = 5.54312e-07, No Iterations 30
time step continuity errors : sum local = 5.58289e-10, global = -1.3182e-19, cumulative = -1.5197e-19
ExecutionTime = 0.1 s  ClockTime = 0 s

Time = 0.004

Courant Number mean: 0.018842 max: 0.124039
smoothSolver:  Solving for Ux, Initial residual = 0.064868, Final residual = 7.9898e-06, No Iterations 5
smoothSolver:  Solving for Uy, Initial residual = 0.0872948, Final residual = 2.97798e-06, No Iterations 6
DICPCG:  Solving for p, Initial residual = 0.0515336, Final residual = 9.66858e-07, No Iterations 30
time step continuity errors : sum local = 1.00039e-09, global = 3.14329e-21, cumulative = -1.48826e-19
DICPCG:  Solving for p, Initial residual = 0.0251133, Final residual = 5.00611e-07, No Iterations 30
time step continuity errors : sum local = 5.28957e-10, global = 1.03464e-19, cumulative = -4.53626e-20
ExecutionTime = 0.11 s  ClockTime = 0 s

Time = 0.005

Courant Number mean: 0.0217389 max: 0.135445
smoothSolver:  Solving for Ux, Initial residual = 0.0440852, Final residual = 5.95056e-06, No Iterations 5
smoothSolver:  Solving for Uy, Initial residual = 0.0602043, Final residual = 2.15885e-06, No Iterations 6
DICPCG:  Solving for p, Initial residual = 0.0347457, Final residual = 7.44234e-07, No Iterations 30
time step continuity errors : sum local = 8.01485e-10, global = 6.35771e-20, cumulative = 1.82145e-20
DICPCG:  Solving for p, Initial residual = 0.016254, Final residual = 7.22954e-07, No Iterations 29
time step continuity errors : sum local = 7.90481e-10, global = 1.81318e-19, cumulative = 1.99533e-19
ExecutionTime = 0.11 s  ClockTime = 0 s

Time = 0.006

Courant Number mean: 0.024073 max: 0.14265
smoothSolver:  Solving for Ux, Initial residual = 0.0328273, Final residual = 4.75624e-06, No Iterations 5
smoothSolver:  Solving for Uy, Initial residual = 0.0450658, Final residual = 9.11438e-06, No Iterations 5
DICPCG:  Solving for p, Initial residual = 0.0245133, Final residual = 7.70343e-07, No Iterations 29
time step continuity errors : sum local = 8.56161e-10, global = 6.91192e-20, cumulative = 2.68652e-19
DICPCG:  Solving for p, Initial residual = 0.0113697, Final residual = 3.69872e-07, No Iterations 29
time step continuity errors : sum local = 4.15406e-10, global = 1.31092e-19, cumulative = 3.99743e-19
ExecutionTime = 0.12 s  ClockTime = 0 s

Time = 0.007

Courant Number mean: 0.0259854 max: 0.147536
smoothSolver:  Solving for Ux, Initial residual = 0.0258657, Final residual = 3.97741e-06, No Iterations 5
smoothSolver:  Solving for Uy, Initial residual = 0.0356368, Final residual = 7.39125e-06, No Iterations 5
DICPCG:  Solving for p, Initial residual = 0.0184361, Final residual = 8.05549e-07, No Iterations 29
time step continuity errors : sum local = 9.19971e-10, global = -2.71315e-20, cumulative = 3.72612e-19
DICPCG:  Solving for p, Initial residual = 0.00852266, Final residual = 8.59065e-07, No Iterations 28
time step continuity errors : sum local = 9.83388e-10, global = 1.8873e-19, cumulative = 5.61341e-19
ExecutionTime = 0.13 s  ClockTime = 0 s

Time = 0.008

Courant Number mean: 0.0275916 max: 0.151057
smoothSolver:  Solving for Ux, Initial residual = 0.0210331, Final residual = 3.40195e-06, No Iterations 5
smoothSolver:  Solving for Uy, Initial residual = 0.029268, Final residual = 6.18145e-06, No Iterations 5
DICPCG:  Solving for p, Initial residual = 0.0142151, Final residual = 9.96358e-07, No Iterations 29
time step continuity errors : sum local = 1.15274e-09, global = 2.72473e-20, cumulative = 5.88589e-19
DICPCG:  Solving for p, Initial residual = 0.00686452, Final residual = 9.8801e-07, No Iterations 28
time step continuity errors : sum local = 1.14717e-09, global = -1.08758e-19, cumulative = 4.79831e-19
ExecutionTime = 0.14 s  ClockTime = 0 s

Time = 0.009

Courant Number mean: 0.0289567 max: 0.153721
smoothSolver:  Solving for Ux, Initial residual = 0.0175871, Final residual = 2.95772e-06, No Iterations 5
smoothSolver:  Solving for Uy, Initial residual = 0.0246919, Final residual = 5.28431e-06, No Iterations 5
DICPCG:  Solving for p, Initial residual = 0.0117817, Final residual = 9.38842e-07, No Iterations 29
time step continuity errors : sum local = 1.0957e-09, global = 1.46212e-19, cumulative = 6.26043e-19
DICPCG:  Solving for p, Initial residual = 0.00574027, Final residual = 9.59648e-07, No Iterations 28
time step continuity errors : sum local = 1.1233e-09, global = -1.54964e-19, cumulative = 4.71079e-19
ExecutionTime = 0.14 s  ClockTime = 0 s

Time = 0.01

Courant Number mean: 0.0301458 max: 0.155817
smoothSolver:  Solving for Ux, Initial residual = 0.015076, Final residual = 2.61181e-06, No Iterations 5
smoothSolver:  Solving for Uy, Initial residual = 0.0212434, Final residual = 4.59124e-06, No Iterations 5
DICPCG:  Solving for p, Initial residual = 0.0100993, Final residual = 8.3605e-07, No Iterations 29
time step continuity errors : sum local = 9.82627e-10, global = -5.12521e-20, cumulative = 4.19827e-19
DICPCG:  Solving for p, Initial residual = 0.0049208, Final residual = 8.67642e-07, No Iterations 28
time step continuity errors : sum local = 1.0225e-09, global = 9.75577e-20, cumulative = 5.17385e-19
ExecutionTime = 0.15 s  ClockTime = 0 s

Time = 0.011

Courant Number mean: 0.0311851 max: 0.157515
smoothSolver:  Solving for Ux, Initial residual = 0.0131138, Final residual = 2.3357e-06, No Iterations 5
smoothSolver:  Solving for Uy, Initial residual = 0.0185502, Final residual = 4.03891e-06, No Iterations 5
DICPCG:  Solving for p, Initial residual = 0.00870702, Final residual = 7.43141e-07, No Iterations 29
time step continuity errors : sum local = 8.78502e-10, global = -1.43268e-19, cumulative = 3.74117e-19
DICPCG:  Solving for p, Initial residual = 0.0042792, Final residual = 7.80506e-07, No Iterations 28
time step continuity errors : sum local = 9.2509e-10, global = 3.04072e-20, cumulative = 4.04524e-19
ExecutionTime = 0.16 s  ClockTime = 0 s

Time = 0.012

Courant Number mean: 0.0321006 max: 0.158922
smoothSolver:  Solving for Ux, Initial residual = 0.0115273, Final residual = 2.10412e-06, No Iterations 5
smoothSolver:  Solving for Uy, Initial residual = 0.0163862, Final residual = 3.5881e-06, No Iterations 5
DICPCG:  Solving for p, Initial residual = 0.0076481, Final residual = 6.67591e-07, No Iterations 29
time step continuity errors : sum local = 7.93056e-10, global = 1.47834e-19, cumulative = 5.52358e-19
DICPCG:  Solving for p, Initial residual = 0.00377924, Final residual = 6.84829e-07, No Iterations 28
time step continuity errors : sum local = 8.15727e-10, global = -7.03104e-21, cumulative = 5.45327e-19
ExecutionTime = 0.17 s  ClockTime = 0 s

Time = 0.013

Courant Number mean: 0.0329364 max: 0.160108
smoothSolver:  Solving for Ux, Initial residual = 0.0102056, Final residual = 1.90697e-06, No Iterations 5
smoothSolver:  Solving for Uy, Initial residual = 0.0146073, Final residual = 3.21305e-06, No Iterations 5
DICPCG:  Solving for p, Initial residual = 0.00679205, Final residual = 6.03731e-07, No Iterations 29
time step continuity errors : sum local = 7.20304e-10, global = -1.79664e-20, cumulative = 5.27361e-19
DICPCG:  Solving for p, Initial residual = 0.00336739, Final residual = 6.26498e-07, No Iterations 28
time step continuity errors : sum local = 7.495e-10, global = 5.01106e-20, cumulative = 5.77471e-19
ExecutionTime = 0.18 s  ClockTime = 0 s

Time = 0.014

Courant Number mean: 0.0337104 max: 0.161123
smoothSolver:  Solving for Ux, Initial residual = 0.00911477, Final residual = 9.55701e-06, No Iterations 4
smoothSolver:  Solving for Uy, Initial residual = 0.0131184, Final residual = 2.89609e-06, No Iterations 5
DICPCG:  Solving for p, Initial residual = 0.00606225, Final residual = 5.50058e-07, No Iterations 29
time step continuity errors : sum local = 6.58736e-10, global = 1.74485e-19, cumulative = 7.51957e-19
DICPCG:  Solving for p, Initial residual = 0.00301371, Final residual = 5.64798e-07, No Iterations 28
time step continuity errors : sum local = 6.78316e-10, global = -9.94933e-20, cumulative = 6.52464e-19
ExecutionTime = 0.18 s  ClockTime = 0 s

Time = 0.015

Courant Number mean: 0.0344176 max: 0.162
smoothSolver:  Solving for Ux, Initial residual = 0.00821785, Final residual = 8.72024e-06, No Iterations 4
smoothSolver:  Solving for Uy, Initial residual = 0.0118558, Final residual = 2.62518e-06, No Iterations 5
DICPCG:  Solving for p, Initial residual = 0.00544644, Final residual = 4.95198e-07, No Iterations 29
time step continuity errors : sum local = 5.95138e-10, global = -1.58322e-20, cumulative = 6.36631e-19
DICPCG:  Solving for p, Initial residual = 0.00271795, Final residual = 5.05176e-07, No Iterations 28
time step continuity errors : sum local = 6.08817e-10, global = 7.08397e-20, cumulative = 7.07471e-19
ExecutionTime = 0.19 s  ClockTime = 0 s

Time = 0.016

Courant Number mean: 0.0350691 max: 0.162766
smoothSolver:  Solving for Ux, Initial residual = 0.00745357, Final residual = 7.98335e-06, No Iterations 4
smoothSolver:  Solving for Uy, Initial residual = 0.0107702, Final residual = 2.39065e-06, No Iterations 5
DICPCG:  Solving for p, Initial residual = 0.00492804, Final residual = 9.41602e-07, No Iterations 28
time step continuity errors : sum local = 1.13777e-09, global = 5.06069e-20, cumulative = 7.58078e-19
DICPCG:  Solving for p, Initial residual = 0.00246331, Final residual = 9.24426e-07, No Iterations 27
time step continuity errors : sum local = 1.12049e-09, global = 2.23339e-20, cumulative = 7.80412e-19
ExecutionTime = 0.2 s  ClockTime = 0 s

Time = 0.017

Courant Number mean: 0.0356683 max: 0.16344
smoothSolver:  Solving for Ux, Initial residual = 0.00678894, Final residual = 7.33594e-06, No Iterations 4
smoothSolver:  Solving for Uy, Initial residual = 0.00982797, Final residual = 2.18596e-06, No Iterations 5
DICPCG:  Solving for p, Initial residual = 0.00447907, Final residual = 8.29627e-07, No Iterations 28
time step continuity errors : sum local = 1.00543e-09, global = 4.17726e-20, cumulative = 8.22184e-19
DICPCG:  Solving for p, Initial residual = 0.00224614, Final residual = 7.96051e-07, No Iterations 27
time step continuity errors : sum local = 9.67745e-10, global = -1.8729e-19, cumulative = 6.34894e-19
ExecutionTime = 0.21 s  ClockTime = 0 s

Time = 0.018

Courant Number mean: 0.0362188 max: 0.164036
smoothSolver:  Solving for Ux, Initial residual = 0.00620012, Final residual = 6.76548e-06, No Iterations 4
smoothSolver:  Solving for Uy, Initial residual = 0.00900281, Final residual = 2.0059e-06, No Iterations 5
DICPCG:  Solving for p, Initial residual = 0.00409579, Final residual = 7.34354e-07, No Iterations 28
time step continuity errors : sum local = 8.9235e-10, global = -3.42949e-20, cumulative = 6.00599e-19
DICPCG:  Solving for p, Initial residual = 0.0020593, Final residual = 6.94016e-07, No Iterations 27
time step continuity errors : sum local = 8.45961e-10, global = 5.71416e-20, cumulative = 6.57741e-19
ExecutionTime = 0.21 s  ClockTime = 0 s

Time = 0.019

Courant Number mean: 0.0367277 max: 0.164567
smoothSolver:  Solving for Ux, Initial residual = 0.00567584, Final residual = 6.25763e-06, No Iterations 4
smoothSolver:  Solving for Uy, Initial residual = 0.00827476, Final residual = 9.94441e-06, No Iterations 4
DICPCG:  Solving for p, Initial residual = 0.00375186, Final residual = 6.45526e-07, No Iterations 28
time step continuity errors : sum local = 7.86318e-10, global = 1.08807e-19, cumulative = 7.66548e-19
DICPCG:  Solving for p, Initial residual = 0.00188664, Final residual = 6.06917e-07, No Iterations 27
time step continuity errors : sum local = 7.41588e-10, global = 4.33774e-20, cumulative = 8.09926e-19
ExecutionTime = 0.22 s  ClockTime = 0 s

Time = 0.02

Courant Number mean: 0.0371974 max: 0.165042
smoothSolver:  Solving for Ux, Initial residual = 0.00520584, Final residual = 5.80132e-06, No Iterations 4
smoothSolver:  Solving for Uy, Initial residual = 0.00762852, Final residual = 9.17693e-06, No Iterations 4
DICPCG:  Solving for p, Initial residual = 0.0034507, Final residual = 5.59454e-07, No Iterations 28
time step continuity errors : sum local = 6.83055e-10, global = -9.44475e-20, cumulative = 7.15478e-19
DICPCG:  Solving for p, Initial residual = 0.00173683, Final residual = 8.91066e-07, No Iterations 26
time step continuity errors : sum local = 1.09246e-09, global = 1.6891e-20, cumulative = 7.32369e-19
ExecutionTime = 0.23 s  ClockTime = 0 s

Time = 0.021

Courant Number mean: 0.0376339 max: 0.165468
smoothSolver:  Solving for Ux, Initial residual = 0.00478647, Final residual = 5.38785e-06, No Iterations 4
smoothSolver:  Solving for Uy, Initial residual = 0.00705104, Final residual = 8.48953e-06, No Iterations 4
DICPCG:  Solving for p, Initial residual = 0.00317337, Final residual = 8.59091e-07, No Iterations 27
time step continuity errors : sum local = 1.05436e-09, global = 2.13313e-19, cumulative = 9.45683e-19
DICPCG:  Solving for p, Initial residual = 0.00160174, Final residual = 7.63942e-07, No Iterations 26
time step continuity errors : sum local = 9.38294e-10, global = 1.29139e-19, cumulative = 1.07482e-18
ExecutionTime = 0.24 s  ClockTime = 0 s

Time = 0.022

Courant Number mean: 0.0380379 max: 0.165853
smoothSolver:  Solving for Ux, Initial residual = 0.00442823, Final residual = 5.01199e-06, No Iterations 4
smoothSolver:  Solving for Uy, Initial residual = 0.00653249, Final residual = 7.87115e-06, No Iterations 4
DICPCG:  Solving for p, Initial residual = 0.00294059, Final residual = 7.30011e-07, No Iterations 27
time step continuity errors : sum local = 8.97613e-10, global = 1.5953e-19, cumulative = 1.23435e-18
DICPCG:  Solving for p, Initial residual = 0.00148221, Final residual = 6.63378e-07, No Iterations 26
time step continuity errors : sum local = 8.16132e-10, global = 4.20373e-20, cumulative = 1.27639e-18
ExecutionTime = 0.24 s  ClockTime = 0 s

Time = 0.023

Courant Number mean: 0.0384124 max: 0.166201
smoothSolver:  Solving for Ux, Initial residual = 0.00410996, Final residual = 4.66977e-06, No Iterations 4
smoothSolver:  Solving for Uy, Initial residual = 0.00606475, Final residual = 7.31236e-06, No Iterations 4
DICPCG:  Solving for p, Initial residual = 0.0027229, Final residual = 6.14372e-07, No Iterations 27
time step continuity errors : sum local = 7.56875e-10, global = 2.03867e-19, cumulative = 1.48026e-18
DICPCG:  Solving for p, Initial residual = 0.00137518, Final residual = 5.75196e-07, No Iterations 26
time step continuity errors : sum local = 7.08714e-10, global = 7.51576e-20, cumulative = 1.55541e-18
ExecutionTime = 0.25 s  ClockTime = 0 s

Time = 0.024

Courant Number mean: 0.0387613 max: 0.166516
smoothSolver:  Solving for Ux, Initial residual = 0.00382089, Final residual = 4.35685e-06, No Iterations 4
smoothSolver:  Solving for Uy, Initial residual = 0.00564118, Final residual = 6.80545e-06, No Iterations 4
DICPCG:  Solving for p, Initial residual = 0.00252371, Final residual = 5.1608e-07, No Iterations 27
time step continuity errors : sum local = 6.36905e-10, global = 3.14163e-20, cumulative = 1.58683e-18
DICPCG:  Solving for p, Initial residual = 0.00127847, Final residual = 4.99434e-07, No Iterations 26
time step continuity errors : sum local = 6.16197e-10, global = 1.905e-19, cumulative = 1.77733e-18
ExecutionTime = 0.26 s  ClockTime = 0 s

Time = 0.025

Courant Number mean: 0.0390857 max: 0.166803
smoothSolver:  Solving for Ux, Initial residual = 0.00355688, Final residual = 4.07032e-06, No Iterations 4
smoothSolver:  Solving for Uy, Initial residual = 0.0052562, Final residual = 6.34402e-06, No Iterations 4
DICPCG:  Solving for p, Initial residual = 0.00234224, Final residual = 9.30773e-07, No Iterations 26
time step continuity errors : sum local = 1.14767e-09, global = -7.22294e-20, cumulative = 1.7051e-18
DICPCG:  Solving for p, Initial residual = 0.00118951, Final residual = 4.3797e-07, No Iterations 26
time step continuity errors : sum local = 5.41061e-10, global = -5.27741e-21, cumulative = 1.69982e-18
ExecutionTime = 0.27 s  ClockTime = 0 s

Time = 0.026

Courant Number mean: 0.039388 max: 0.167065
smoothSolver:  Solving for Ux, Initial residual = 0.00331488, Final residual = 3.80772e-06, No Iterations 4
smoothSolver:  Solving for Uy, Initial residual = 0.00490508, Final residual = 5.92262e-06, No Iterations 4
DICPCG:  Solving for p, Initial residual = 0.00217581, Final residual = 8.2907e-07, No Iterations 26
time step continuity errors : sum local = 1.02342e-09, global = 1.42333e-19, cumulative = 1.84216e-18
DICPCG:  Solving for p, Initial residual = 0.00110839, Final residual = 3.83758e-07, No Iterations 26
time step continuity errors : sum local = 4.74653e-10, global = 1.39545e-20, cumulative = 1.85611e-18
ExecutionTime = 0.27 s  ClockTime = 0 s

Time = 0.027

Courant Number mean: 0.039672 max: 0.167304
smoothSolver:  Solving for Ux, Initial residual = 0.00309237, Final residual = 3.56661e-06, No Iterations 4
smoothSolver:  Solving for Uy, Initial residual = 0.00458388, Final residual = 5.53666e-06, No Iterations 4
DICPCG:  Solving for p, Initial residual = 0.00203248, Final residual = 7.5213e-07, No Iterations 26
time step continuity errors : sum local = 9.29484e-10, global = -1.28395e-19, cumulative = 1.72772e-18
DICPCG:  Solving for p, Initial residual = 0.00103573, Final residual = 9.60283e-07, No Iterations 25
time step continuity errors : sum local = 1.18109e-09, global = 5.38329e-20, cumulative = 1.78155e-18
ExecutionTime = 0.28 s  ClockTime = 0 s

Time = 0.028

Courant Number mean: 0.0399377 max: 0.167523
smoothSolver:  Solving for Ux, Initial residual = 0.00288709, Final residual = 3.3444e-06, No Iterations 4
smoothSolver:  Solving for Uy, Initial residual = 0.00428924, Final residual = 5.18228e-06, No Iterations 4
DICPCG:  Solving for p, Initial residual = 0.00189209, Final residual = 6.80235e-07, No Iterations 26
time step continuity errors : sum local = 8.41479e-10, global = -3.51055e-20, cumulative = 1.74644e-18
DICPCG:  Solving for p, Initial residual = 0.000966174, Final residual = 8.77926e-07, No Iterations 25
time step continuity errors : sum local = 1.0808e-09, global = 1.08096e-19, cumulative = 1.85454e-18
ExecutionTime = 0.29 s  ClockTime = 0 s

Time = 0.029

Courant Number mean: 0.0401862 max: 0.167724
smoothSolver:  Solving for Ux, Initial residual = 0.00269751, Final residual = 3.13933e-06, No Iterations 4
smoothSolver:  Solving for Uy, Initial residual = 0.00401819, Final residual = 4.856e-06, No Iterations 4
DICPCG:  Solving for p, Initial residual = 0.00176652, Final residual = 6.24075e-07, No Iterations 26
time step continuity errors : sum local = 7.72781e-10, global = 6.68362e-20, cumulative = 1.92138e-18
DICPCG:  Solving for p, Initial residual = 0.000903251, Final residual = 8.09862e-07, No Iterations 25
time step continuity errors : sum local = 9.97949e-10, global = -7.89296e-20, cumulative = 1.84245e-18
ExecutionTime = 0.3 s  ClockTime = 0 s

Time = 0.03

Courant Number mean: 0.0404187 max: 0.167909
smoothSolver:  Solving for Ux, Initial residual = 0.00252209, Final residual = 2.94925e-06, No Iterations 4
smoothSolver:  Solving for Uy, Initial residual = 0.00376826, Final residual = 4.55496e-06, No Iterations 4
DICPCG:  Solving for p, Initial residual = 0.00165202, Final residual = 5.77884e-07, No Iterations 26
time step continuity errors : sum local = 7.16286e-10, global = -5.90111e-20, cumulative = 1.78343e-18
DICPCG:  Solving for p, Initial residual = 0.000845406, Final residual = 7.49639e-07, No Iterations 25
time step continuity errors : sum local = 9.2458e-10, global = 3.45761e-20, cumulative = 1.81801e-18
ExecutionTime = 0.3 s  ClockTime = 0 s

Time = 0.031

Courant Number mean: 0.0406367 max: 0.168079
smoothSolver:  Solving for Ux, Initial residual = 0.00236041, Final residual = 2.77277e-06, No Iterations 4
smoothSolver:  Solving for Uy, Initial residual = 0.00353732, Final residual = 4.27664e-06, No Iterations 4
DICPCG:  Solving for p, Initial residual = 0.00154789, Final residual = 5.39763e-07, No Iterations 26
time step continuity errors : sum local = 6.69679e-10, global = 2.27475e-20, cumulative = 1.84076e-18
DICPCG:  Solving for p, Initial residual = 0.000792014, Final residual = 6.97129e-07, No Iterations 25
time step continuity errors : sum local = 8.60574e-10, global = -2.51463e-21, cumulative = 1.83824e-18
ExecutionTime = 0.31 s  ClockTime = 0 s

Time = 0.032

Courant Number mean: 0.0408411 max: 0.168236
smoothSolver:  Solving for Ux, Initial residual = 0.00221477, Final residual = 2.60888e-06, No Iterations 4
smoothSolver:  Solving for Uy, Initial residual = 0.00332352, Final residual = 4.01881e-06, No Iterations 4
DICPCG:  Solving for p, Initial residual = 0.00145157, Final residual = 5.08587e-07, No Iterations 26
time step continuity errors : sum local = 6.31595e-10, global = -1.39463e-20, cumulative = 1.8243e-18
DICPCG:  Solving for p, Initial residual = 0.000743012, Final residual = 6.50821e-07, No Iterations 25
time step continuity errors : sum local = 8.041e-10, global = -1.03166e-19, cumulative = 1.72113e-18
ExecutionTime = 0.32 s  ClockTime = 0 s

Time = 0.033

Courant Number mean: 0.0410331 max: 0.16838
smoothSolver:  Solving for Ux, Initial residual = 0.00208189, Final residual = 2.45618e-06, No Iterations 4
smoothSolver:  Solving for Uy, Initial residual = 0.00312523, Final residual = 3.77955e-06, No Iterations 4
DICPCG:  Solving for p, Initial residual = 0.00136219, Final residual = 4.83314e-07, No Iterations 26
time step continuity errors : sum local = 6.00763e-10, global = 1.28875e-19, cumulative = 1.85001e-18
DICPCG:  Solving for p, Initial residual = 0.000697586, Final residual = 6.10311e-07, No Iterations 25
time step continuity errors : sum local = 7.54686e-10, global = -3.46423e-20, cumulative = 1.81536e-18
ExecutionTime = 0.33 s  ClockTime = 0 s

Time = 0.034

Courant Number mean: 0.0412134 max: 0.168514
smoothSolver:  Solving for Ux, Initial residual = 0.00195878, Final residual = 2.31396e-06, No Iterations 4
smoothSolver:  Solving for Uy, Initial residual = 0.00294098, Final residual = 3.55715e-06, No Iterations 4
DICPCG:  Solving for p, Initial residual = 0.00127894, Final residual = 4.62784e-07, No Iterations 26
time step continuity errors : sum local = 5.75755e-10, global = -8.19901e-20, cumulative = 1.73337e-18
DICPCG:  Solving for p, Initial residual = 0.000655409, Final residual = 5.74977e-07, No Iterations 25
time step continuity errors : sum local = 7.11589e-10, global = -1.86165e-19, cumulative = 1.54721e-18
ExecutionTime = 0.33 s  ClockTime = 0 s

Time = 0.035

Courant Number mean: 0.0413829 max: 0.168638
smoothSolver:  Solving for Ux, Initial residual = 0.00184425, Final residual = 2.18115e-06, No Iterations 4
smoothSolver:  Solving for Uy, Initial residual = 0.00276954, Final residual = 3.35011e-06, No Iterations 4
DICPCG:  Solving for p, Initial residual = 0.00120893, Final residual = 4.44754e-07, No Iterations 26
time step continuity errors : sum local = 5.53765e-10, global = -4.71658e-20, cumulative = 1.50004e-18
DICPCG:  Solving for p, Initial residual = 0.000617233, Final residual = 5.23622e-07, No Iterations 25
time step continuity errors : sum local = 6.48738e-10, global = 1.39396e-19, cumulative = 1.63944e-18
ExecutionTime = 0.34 s  ClockTime = 0 s

Time = 0.036

Courant Number mean: 0.0415432 max: 0.168752
smoothSolver:  Solving for Ux, Initial residual = 0.00173737, Final residual = 2.05697e-06, No Iterations 4
smoothSolver:  Solving for Uy, Initial residual = 0.00260973, Final residual = 3.15704e-06, No Iterations 4
DICPCG:  Solving for p, Initial residual = 0.00113391, Final residual = 4.44545e-07, No Iterations 26
time step continuity errors : sum local = 5.54029e-10, global = 1.5326e-19, cumulative = 1.7927e-18
DICPCG:  Solving for p, Initial residual = 0.000578654, Final residual = 5.30749e-07, No Iterations 25
time step continuity errors : sum local = 6.57874e-10, global = 1.56006e-19, cumulative = 1.94871e-18
ExecutionTime = 0.35 s  ClockTime = 0 s

Time = 0.037

Courant Number mean: 0.0416943 max: 0.168859
smoothSolver:  Solving for Ux, Initial residual = 0.00163725, Final residual = 1.94077e-06, No Iterations 4
smoothSolver:  Solving for Uy, Initial residual = 0.00246079, Final residual = 2.97699e-06, No Iterations 4
DICPCG:  Solving for p, Initial residual = 0.00106268, Final residual = 4.18908e-07, No Iterations 26
time step continuity errors : sum local = 5.22435e-10, global = -2.27177e-19, cumulative = 1.72153e-18
DICPCG:  Solving for p, Initial residual = 0.000545834, Final residual = 4.9315e-07, No Iterations 25
time step continuity errors : sum local = 6.11734e-10, global = 1.28941e-19, cumulative = 1.85047e-18
ExecutionTime = 0.36 s  ClockTime = 0 s

Time = 0.038

Courant Number mean: 0.0418366 max: 0.168957
smoothSolver:  Solving for Ux, Initial residual = 0.00154361, Final residual = 9.87271e-06, No Iterations 3
smoothSolver:  Solving for Uy, Initial residual = 0.00232151, Final residual = 2.80863e-06, No Iterations 4
DICPCG:  Solving for p, Initial residual = 0.000994833, Final residual = 4.19543e-07, No Iterations 26
time step continuity errors : sum local = 5.23667e-10, global = -4.78772e-20, cumulative = 1.80259e-18
DICPCG:  Solving for p, Initial residual = 0.000508513, Final residual = 9.84763e-07, No Iterations 24
time step continuity errors : sum local = 1.22669e-09, global = 1.51043e-19, cumulative = 1.95364e-18
ExecutionTime = 0.36 s  ClockTime = 0 s

Time = 0.039

Courant Number mean: 0.0419706 max: 0.169049
smoothSolver:  Solving for Ux, Initial residual = 0.00145604, Final residual = 9.32133e-06, No Iterations 3
smoothSolver:  Solving for Uy, Initial residual = 0.0021912, Final residual = 2.65101e-06, No Iterations 4
DICPCG:  Solving for p, Initial residual = 0.000937279, Final residual = 4.09226e-07, No Iterations 26
time step continuity errors : sum local = 5.11135e-10, global = 3.83812e-20, cumulative = 1.99202e-18
DICPCG:  Solving for p, Initial residual = 0.000479333, Final residual = 9.22338e-07, No Iterations 24
time step continuity errors : sum local = 1.14919e-09, global = 6.677e-20, cumulative = 2.05879e-18
ExecutionTime = 0.37 s  ClockTime = 0 s

Time = 0.04

Courant Number mean: 0.042097 max: 0.169134
smoothSolver:  Solving for Ux, Initial residual = 0.00137377, Final residual = 8.80354e-06, No Iterations 3
smoothSolver:  Solving for Uy, Initial residual = 0.00206928, Final residual = 2.50353e-06, No Iterations 4
DICPCG:  Solving for p, Initial residual = 0.000883215, Final residual = 9.75724e-07, No Iterations 25
time step continuity errors : sum local = 1.21066e-09, global = -8.44882e-20, cumulative = 1.9743e-18
DICPCG:  Solving for p, Initial residual = 0.000451795, Final residual = 8.72514e-07, No Iterations 24
time step continuity errors : sum local = 1.08742e-09, global = -2.74574e-19, cumulative = 1.69972e-18
ExecutionTime = 0.38 s  ClockTime = 0 s

Time = 0.041

Courant Number mean: 0.0422162 max: 0.169213
smoothSolver:  Solving for Ux, Initial residual = 0.0012965, Final residual = 8.31703e-06, No Iterations 3
smoothSolver:  Solving for Uy, Initial residual = 0.00195501, Final residual = 2.36528e-06, No Iterations 4
DICPCG:  Solving for p, Initial residual = 0.000832625, Final residual = 9.34474e-07, No Iterations 25
time step continuity errors : sum local = 1.16025e-09, global = -2.60727e-20, cumulative = 1.67365e-18
DICPCG:  Solving for p, Initial residual = 0.000425967, Final residual = 8.25479e-07, No Iterations 24
time step continuity errors : sum local = 1.029e-09, global = -1.22621e-19, cumulative = 1.55103e-18
ExecutionTime = 0.39 s  ClockTime = 0 s

Time = 0.042

Courant Number mean: 0.042329 max: 0.169287
smoothSolver:  Solving for Ux, Initial residual = 0.0012239, Final residual = 7.86001e-06, No Iterations 3
smoothSolver:  Solving for Uy, Initial residual = 0.00184779, Final residual = 2.23555e-06, No Iterations 4
DICPCG:  Solving for p, Initial residual = 0.000785162, Final residual = 8.97617e-07, No Iterations 25
time step continuity errors : sum local = 1.11524e-09, global = -2.99605e-20, cumulative = 1.52107e-18
DICPCG:  Solving for p, Initial residual = 0.000401773, Final residual = 7.85637e-07, No Iterations 24
time step continuity errors : sum local = 9.7947e-10, global = -1.5733e-20, cumulative = 1.50534e-18
ExecutionTime = 0.39 s  ClockTime = 0 s

Time = 0.043

Courant Number mean: 0.0424366 max: 0.169356
smoothSolver:  Solving for Ux, Initial residual = 0.00115567, Final residual = 7.43094e-06, No Iterations 3
smoothSolver:  Solving for Uy, Initial residual = 0.00174708, Final residual = 2.11366e-06, No Iterations 4
DICPCG:  Solving for p, Initial residual = 0.000742314, Final residual = 8.62167e-07, No Iterations 25
time step continuity errors : sum local = 1.0718e-09, global = -2.06464e-20, cumulative = 1.48469e-18
DICPCG:  Solving for p, Initial residual = 0.000379212, Final residual = 7.37483e-07, No Iterations 24
time step continuity errors : sum local = 9.19598e-10, global = -5.2344e-20, cumulative = 1.43235e-18
ExecutionTime = 0.4 s  ClockTime = 0 s

Time = 0.044

Courant Number mean: 0.0425388 max: 0.16942
smoothSolver:  Solving for Ux, Initial residual = 0.00109154, Final residual = 7.02768e-06, No Iterations 3
smoothSolver:  Solving for Uy, Initial residual = 0.00165255, Final residual = 1.99926e-06, No Iterations 4
DICPCG:  Solving for p, Initial residual = 0.000699206, Final residual = 8.27088e-07, No Iterations 25
time step continuity errors : sum local = 1.0288e-09, global = -5.29726e-20, cumulative = 1.37937e-18
DICPCG:  Solving for p, Initial residual = 0.000358125, Final residual = 7.04324e-07, No Iterations 24
time step continuity errors : sum local = 8.78337e-10, global = -7.29904e-20, cumulative = 1.30638e-18
ExecutionTime = 0.41 s  ClockTime = 0 s

Time = 0.045

Courant Number mean: 0.0426359 max: 0.16948
smoothSolver:  Solving for Ux, Initial residual = 0.00103133, Final residual = 6.64888e-06, No Iterations 3
smoothSolver:  Solving for Uy, Initial residual = 0.00156358, Final residual = 1.89158e-06, No Iterations 4
DICPCG:  Solving for p, Initial residual = 0.000660336, Final residual = 7.95876e-07, No Iterations 25
time step continuity errors : sum local = 9.90529e-10, global = 8.21887e-20, cumulative = 1.38857e-18
DICPCG:  Solving for p, Initial residual = 0.000338259, Final residual = 6.6981e-07, No Iterations 24
time step continuity errors : sum local = 8.35369e-10, global = 5.82335e-20, cumulative = 1.44681e-18
ExecutionTime = 0.42 s  ClockTime = 0 s

Time = 0.046

Courant Number mean: 0.0427276 max: 0.169536
smoothSolver:  Solving for Ux, Initial residual = 0.000974839, Final residual = 6.29257e-06, No Iterations 3
smoothSolver:  Solving for Uy, Initial residual = 0.00147984, Final residual = 9.61522e-06, No Iterations 3
DICPCG:  Solving for p, Initial residual = 0.000620761, Final residual = 7.49903e-07, No Iterations 25
time step continuity errors : sum local = 9.33061e-10, global = -2.91813e-19, cumulative = 1.15499e-18
DICPCG:  Solving for p, Initial residual = 0.000316873, Final residual = 6.09703e-07, No Iterations 24
time step continuity errors : sum local = 7.61332e-10, global = -9.4646e-20, cumulative = 1.06035e-18
ExecutionTime = 0.42 s  ClockTime = 0 s

Time = 0.047

Courant Number mean: 0.0428148 max: 0.169589
smoothSolver:  Solving for Ux, Initial residual = 0.00092188, Final residual = 5.957e-06, No Iterations 3
smoothSolver:  Solving for Uy, Initial residual = 0.00140116, Final residual = 9.10377e-06, No Iterations 3
DICPCG:  Solving for p, Initial residual = 0.00058697, Final residual = 7.22168e-07, No Iterations 25
time step continuity errors : sum local = 8.98957e-10, global = -2.57584e-19, cumulative = 8.02762e-19
DICPCG:  Solving for p, Initial residual = 0.000299651, Final residual = 5.80911e-07, No Iterations 24
time step continuity errors : sum local = 7.25546e-10, global = 1.61929e-19, cumulative = 9.64691e-19
ExecutionTime = 0.43 s  ClockTime = 0 s

Time = 0.048

Courant Number mean: 0.0428977 max: 0.169638
smoothSolver:  Solving for Ux, Initial residual = 0.000872389, Final residual = 5.64122e-06, No Iterations 3
smoothSolver:  Solving for Uy, Initial residual = 0.00132695, Final residual = 8.62137e-06, No Iterations 3
DICPCG:  Solving for p, Initial residual = 0.000554939, Final residual = 6.93122e-07, No Iterations 25
time step continuity errors : sum local = 8.63054e-10, global = -1.18585e-19, cumulative = 8.46106e-19
DICPCG:  Solving for p, Initial residual = 0.000283367, Final residual = 5.52215e-07, No Iterations 24
time step continuity errors : sum local = 6.89971e-10, global = 2.6933e-20, cumulative = 8.7304e-19
ExecutionTime = 0.44 s  ClockTime = 0 s

Time = 0.049

Courant Number mean: 0.0429761 max: 0.169683
smoothSolver:  Solving for Ux, Initial residual = 0.000826057, Final residual = 5.34383e-06, No Iterations 3
smoothSolver:  Solving for Uy, Initial residual = 0.00125699, Final residual = 8.16655e-06, No Iterations 3
DICPCG:  Solving for p, Initial residual = 0.000524883, Final residual = 6.65115e-07, No Iterations 25
time step continuity errors : sum local = 8.28476e-10, global = 1.3584e-19, cumulative = 1.00888e-18
DICPCG:  Solving for p, Initial residual = 0.000268091, Final residual = 5.26759e-07, No Iterations 24
time step continuity errors : sum local = 6.58288e-10, global = -8.35287e-20, cumulative = 9.2535e-19
ExecutionTime = 0.45 s  ClockTime = 0 s

Time = 0.05

Courant Number mean: 0.0430503 max: 0.169726
smoothSolver:  Solving for Ux, Initial residual = 0.000782575, Final residual = 5.06361e-06, No Iterations 3
smoothSolver:  Solving for Uy, Initial residual = 0.00119095, Final residual = 7.73716e-06, No Iterations 3
DICPCG:  Solving for p, Initial residual = 0.000496463, Final residual = 6.38052e-07, No Iterations 25
time step continuity errors : sum local = 7.94949e-10, global = -9.73095e-20, cumulative = 8.28041e-19
DICPCG:  Solving for p, Initial residual = 0.000253569, Final residual = 9.61289e-07, No Iterations 23
time step continuity errors : sum local = 1.2046e-09, global = 1.18949e-20, cumulative = 8.39936e-19
ExecutionTime = 0.48 s  ClockTime = 0 s

Time = 0.051

Courant Number mean: 0.0431205 max: 0.169767
smoothSolver:  Solving for Ux, Initial residual = 0.0007416, Final residual = 4.79916e-06, No Iterations 3
smoothSolver:  Solving for Uy, Initial residual = 0.00112861, Final residual = 7.3319e-06, No Iterations 3
DICPCG:  Solving for p, Initial residual = 0.000469736, Final residual = 6.07674e-07, No Iterations 25
time step continuity errors : sum local = 7.57283e-10, global = -1.69853e-19, cumulative = 6.70082e-19
DICPCG:  Solving for p, Initial residual = 0.000239837, Final residual = 8.99563e-07, No Iterations 23
time step continuity errors : sum local = 1.12776e-09, global = -2.46169e-20, cumulative = 6.45466e-19
ExecutionTime = 0.49 s  ClockTime = 0 s

Time = 0.052

Courant Number mean: 0.0431869 max: 0.169804
smoothSolver:  Solving for Ux, Initial residual = 0.000702955, Final residual = 4.54955e-06, No Iterations 3
smoothSolver:  Solving for Uy, Initial residual = 0.00106974, Final residual = 6.94915e-06, No Iterations 3
DICPCG:  Solving for p, Initial residual = 0.000444444, Final residual = 9.49572e-07, No Iterations 24
time step continuity errors : sum local = 1.19072e-09, global = 8.95009e-21, cumulative = 6.54416e-19
DICPCG:  Solving for p, Initial residual = 0.000226847, Final residual = 8.21194e-07, No Iterations 23
time step continuity errors : sum local = 1.02999e-09, global = 3.09035e-20, cumulative = 6.85319e-19
ExecutionTime = 0.5 s  ClockTime = 0 s

Time = 0.053

Courant Number mean: 0.0432498 max: 0.16984
smoothSolver:  Solving for Ux, Initial residual = 0.000666455, Final residual = 4.3138e-06, No Iterations 3
smoothSolver:  Solving for Uy, Initial residual = 0.00101413, Final residual = 6.5876e-06, No Iterations 3
DICPCG:  Solving for p, Initial residual = 0.000420625, Final residual = 8.93163e-07, No Iterations 24
time step continuity errors : sum local = 1.12055e-09, global = 1.39711e-19, cumulative = 8.2503e-19
DICPCG:  Solving for p, Initial residual = 0.000214679, Final residual = 7.63188e-07, No Iterations 23
time step continuity errors : sum local = 9.57718e-10, global = 2.09111e-20, cumulative = 8.45941e-19
ExecutionTime = 0.51 s  ClockTime = 0 s

Time = 0.054

Courant Number mean: 0.0433094 max: 0.169873
smoothSolver:  Solving for Ux, Initial residual = 0.000631931, Final residual = 4.09106e-06, No Iterations 3
smoothSolver:  Solving for Uy, Initial residual = 0.000961568, Final residual = 6.24588e-06, No Iterations 3
DICPCG:  Solving for p, Initial residual = 0.000398191, Final residual = 8.41679e-07, No Iterations 24
time step continuity errors : sum local = 1.05653e-09, global = -4.4949e-20, cumulative = 8.00992e-19
DICPCG:  Solving for p, Initial residual = 0.00020326, Final residual = 7.11803e-07, No Iterations 23
time step continuity errors : sum local = 8.93728e-10, global = -3.8497e-20, cumulative = 7.62495e-19
ExecutionTime = 0.51 s  ClockTime = 0 s

Time = 0.055

Courant Number mean: 0.0433658 max: 0.169904
smoothSolver:  Solving for Ux, Initial residual = 0.000599304, Final residual = 3.88035e-06, No Iterations 3
smoothSolver:  Solving for Uy, Initial residual = 0.000911872, Final residual = 5.92277e-06, No Iterations 3
DICPCG:  Solving for p, Initial residual = 0.000381736, Final residual = 8.12759e-07, No Iterations 24
time step continuity errors : sum local = 1.01992e-09, global = -1.85768e-19, cumulative = 5.76727e-19
DICPCG:  Solving for p, Initial residual = 0.000192472, Final residual = 6.7442e-07, No Iterations 23
time step continuity errors : sum local = 8.46682e-10, global = 1.9667e-19, cumulative = 7.73397e-19
ExecutionTime = 0.52 s  ClockTime = 0 s

Time = 0.056

Courant Number mean: 0.0434197 max: 0.169933
smoothSolver:  Solving for Ux, Initial residual = 0.000568424, Final residual = 3.68114e-06, No Iterations 3
smoothSolver:  Solving for Uy, Initial residual = 0.000864815, Final residual = 5.61681e-06, No Iterations 3
DICPCG:  Solving for p, Initial residual = 0.000361957, Final residual = 6.10459e-07, No Iterations 24
time step continuity errors : sum local = 7.71204e-10, global = -8.96002e-20, cumulative = 6.83797e-19
DICPCG:  Solving for p, Initial residual = 0.000182937, Final residual = 5.40262e-07, No Iterations 23
time step continuity errors : sum local = 6.81514e-10, global = -1.16897e-19, cumulative = 5.669e-19
ExecutionTime = 0.53 s  ClockTime = 0 s

Time = 0.057

Courant Number mean: 0.0434709 max: 0.169961
smoothSolver:  Solving for Ux, Initial residual = 0.000539134, Final residual = 3.49206e-06, No Iterations 3
smoothSolver:  Solving for Uy, Initial residual = 0.000820457, Final residual = 5.32848e-06, No Iterations 3
DICPCG:  Solving for p, Initial residual = 0.000337984, Final residual = 6.94322e-07, No Iterations 24
time step continuity errors : sum local = 8.73387e-10, global = 2.64367e-20, cumulative = 5.93337e-19
DICPCG:  Solving for p, Initial residual = 0.000172683, Final residual = 5.73459e-07, No Iterations 23
time step continuity errors : sum local = 7.21438e-10, global = 3.39028e-19, cumulative = 9.32365e-19
ExecutionTime = 0.53 s  ClockTime = 0 s

Time = 0.058

Courant Number mean: 0.0435193 max: 0.169987
smoothSolver:  Solving for Ux, Initial residual = 0.000511436, Final residual = 3.31327e-06, No Iterations 3
smoothSolver:  Solving for Uy, Initial residual = 0.000778372, Final residual = 5.0549e-06, No Iterations 3
DICPCG:  Solving for p, Initial residual = 0.000320071, Final residual = 6.42547e-07, No Iterations 24
time step continuity errors : sum local = 8.08922e-10, global = 4.67357e-20, cumulative = 9.79101e-19
DICPCG:  Solving for p, Initial residual = 0.000163584, Final residual = 5.29788e-07, No Iterations 23
time step continuity errors : sum local = 6.66946e-10, global = -5.61821e-20, cumulative = 9.22918e-19
ExecutionTime = 0.54 s  ClockTime = 0 s

Time = 0.059

Courant Number mean: 0.0435653 max: 0.170011
smoothSolver:  Solving for Ux, Initial residual = 0.000485193, Final residual = 3.1438e-06, No Iterations 3
smoothSolver:  Solving for Uy, Initial residual = 0.000738532, Final residual = 4.79592e-06, No Iterations 3
DICPCG:  Solving for p, Initial residual = 0.000303418, Final residual = 5.90366e-07, No Iterations 24
time step continuity errors : sum local = 7.44055e-10, global = -2.71481e-20, cumulative = 8.9577e-19
DICPCG:  Solving for p, Initial residual = 0.000155054, Final residual = 4.87571e-07, No Iterations 23
time step continuity errors : sum local = 6.14337e-10, global = -9.32398e-20, cumulative = 8.02531e-19
ExecutionTime = 0.55 s  ClockTime = 0 s

Time = 0.06

Courant Number mean: 0.0436089 max: 0.170034
smoothSolver:  Solving for Ux, Initial residual = 0.00046034, Final residual = 2.98327e-06, No Iterations 3
smoothSolver:  Solving for Uy, Initial residual = 0.000700812, Final residual = 4.55073e-06, No Iterations 3
DICPCG:  Solving for p, Initial residual = 0.000287621, Final residual = 5.37282e-07, No Iterations 24
time step continuity errors : sum local = 6.77997e-10, global = -1.70548e-19, cumulative = 6.31983e-19
DICPCG:  Solving for p, Initial residual = 0.000146979, Final residual = 4.46832e-07, No Iterations 23
time step continuity errors : sum local = 5.63523e-10, global = 2.63308e-19, cumulative = 8.95291e-19
ExecutionTime = 0.56 s  ClockTime = 0 s

Time = 0.061

Courant Number mean: 0.0436502 max: 0.170055
smoothSolver:  Solving for Ux, Initial residual = 0.000436788, Final residual = 2.83122e-06, No Iterations 3
smoothSolver:  Solving for Uy, Initial residual = 0.000665089, Final residual = 4.31853e-06, No Iterations 3
DICPCG:  Solving for p, Initial residual = 0.000272654, Final residual = 9.64738e-07, No Iterations 23
time step continuity errors : sum local = 1.21795e-09, global = 3.36993e-20, cumulative = 9.2899e-19
DICPCG:  Solving for p, Initial residual = 0.000139381, Final residual = 4.47741e-07, No Iterations 23
time step continuity errors : sum local = 5.64388e-10, global = 2.11808e-19, cumulative = 1.1408e-18
ExecutionTime = 0.56 s  ClockTime = 0 s

Time = 0.062

Courant Number mean: 0.0436893 max: 0.170076
smoothSolver:  Solving for Ux, Initial residual = 0.000414461, Final residual = 2.68703e-06, No Iterations 3
smoothSolver:  Solving for Uy, Initial residual = 0.000631259, Final residual = 4.09865e-06, No Iterations 3
DICPCG:  Solving for p, Initial residual = 0.000258485, Final residual = 8.99047e-07, No Iterations 23
time step continuity errors : sum local = 1.13533e-09, global = 9.19163e-20, cumulative = 1.23271e-18
DICPCG:  Solving for p, Initial residual = 0.000132128, Final residual = 4.19455e-07, No Iterations 23
time step continuity errors : sum local = 5.28881e-10, global = -1.01396e-19, cumulative = 1.13132e-18
ExecutionTime = 0.57 s  ClockTime = 0 s

Time = 0.063

Courant Number mean: 0.0437264 max: 0.170095
smoothSolver:  Solving for Ux, Initial residual = 0.000393308, Final residual = 2.55038e-06, No Iterations 3
smoothSolver:  Solving for Uy, Initial residual = 0.000599197, Final residual = 3.89026e-06, No Iterations 3
DICPCG:  Solving for p, Initial residual = 0.000245076, Final residual = 7.99901e-07, No Iterations 23
time step continuity errors : sum local = 1.01098e-09, global = -1.11372e-19, cumulative = 1.01995e-18
DICPCG:  Solving for p, Initial residual = 0.000125276, Final residual = 3.85236e-07, No Iterations 23
time step continuity errors : sum local = 4.86139e-10, global = -1.37213e-19, cumulative = 8.82734e-19
ExecutionTime = 0.58 s  ClockTime = 0 s

Time = 0.064

Courant Number mean: 0.0437616 max: 0.170113
smoothSolver:  Solving for Ux, Initial residual = 0.000373259, Final residual = 2.4209e-06, No Iterations 3
smoothSolver:  Solving for Uy, Initial residual = 0.000568812, Final residual = 3.69279e-06, No Iterations 3
DICPCG:  Solving for p, Initial residual = 0.000232383, Final residual = 7.1349e-07, No Iterations 23
time step continuity errors : sum local = 9.02402e-10, global = -8.96664e-20, cumulative = 7.93068e-19
DICPCG:  Solving for p, Initial residual = 0.000118792, Final residual = 8.97264e-07, No Iterations 22
time step continuity errors : sum local = 1.12896e-09, global = 5.56196e-20, cumulative = 8.48687e-19
ExecutionTime = 0.59 s  ClockTime = 0 s

Time = 0.065

Courant Number mean: 0.043795 max: 0.17013
smoothSolver:  Solving for Ux, Initial residual = 0.000354242, Final residual = 2.29804e-06, No Iterations 3
smoothSolver:  Solving for Uy, Initial residual = 0.000540027, Final residual = 3.50572e-06, No Iterations 3
DICPCG:  Solving for p, Initial residual = 0.000220321, Final residual = 7.43601e-07, No Iterations 23
time step continuity errors : sum local = 9.39464e-10, global = 5.28072e-20, cumulative = 9.01495e-19
DICPCG:  Solving for p, Initial residual = 0.000112631, Final residual = 9.22419e-07, No Iterations 22
time step continuity errors : sum local = 1.15951e-09, global = 8.24037e-20, cumulative = 9.83898e-19
ExecutionTime = 0.59 s  ClockTime = 0 s

Time = 0.066

Courant Number mean: 0.0438267 max: 0.170146
smoothSolver:  Solving for Ux, Initial residual = 0.000336228, Final residual = 2.18165e-06, No Iterations 3
smoothSolver:  Solving for Uy, Initial residual = 0.000512714, Final residual = 3.32824e-06, No Iterations 3
DICPCG:  Solving for p, Initial residual = 0.000208937, Final residual = 6.37478e-07, No Iterations 23
time step continuity errors : sum local = 8.06398e-10, global = -8.76811e-21, cumulative = 9.7513e-19
DICPCG:  Solving for p, Initial residual = 0.000106815, Final residual = 9.90178e-07, No Iterations 21
time step continuity errors : sum local = 1.25116e-09, global = -1.03828e-19, cumulative = 8.71302e-19
ExecutionTime = 0.6 s  ClockTime = 0 s

Time = 0.067

Courant Number mean: 0.0438567 max: 0.170161
smoothSolver:  Solving for Ux, Initial residual = 0.000319127, Final residual = 2.0712e-06, No Iterations 3
smoothSolver:  Solving for Uy, Initial residual = 0.000486852, Final residual = 3.16018e-06, No Iterations 3
DICPCG:  Solving for p, Initial residual = 0.000198188, Final residual = 7.69346e-07, No Iterations 23
time step continuity errors : sum local = 9.70119e-10, global = -1.89706e-19, cumulative = 6.81597e-19
DICPCG:  Solving for p, Initial residual = 0.000101337, Final residual = 8.91551e-07, No Iterations 22
time step continuity errors : sum local = 1.11963e-09, global = 1.57958e-19, cumulative = 8.39555e-19
ExecutionTime = 0.61 s  ClockTime = 0 s

Time = 0.068

Courant Number mean: 0.0438852 max: 0.170175
smoothSolver:  Solving for Ux, Initial residual = 0.000302953, Final residual = 1.96669e-06, No Iterations 3
smoothSolver:  Solving for Uy, Initial residual = 0.000462256, Final residual = 3.0004e-06, No Iterations 3
DICPCG:  Solving for p, Initial residual = 0.000187953, Final residual = 8.02305e-07, No Iterations 22
time step continuity errors : sum local = 1.01159e-09, global = -1.25731e-21, cumulative = 8.38298e-19
DICPCG:  Solving for p, Initial residual = 9.60792e-05, Final residual = 7.84882e-07, No Iterations 21
time step continuity errors : sum local = 9.92078e-10, global = 1.51275e-19, cumulative = 9.89573e-19
ExecutionTime = 0.61 s  ClockTime = 0 s

Time = 0.069

Courant Number mean: 0.0439122 max: 0.170188
smoothSolver:  Solving for Ux, Initial residual = 0.000287574, Final residual = 1.86735e-06, No Iterations 3
smoothSolver:  Solving for Uy, Initial residual = 0.000439003, Final residual = 2.84931e-06, No Iterations 3
DICPCG:  Solving for p, Initial residual = 0.000178584, Final residual = 6.25927e-07, No Iterations 23
time step continuity errors : sum local = 7.90484e-10, global = 1.52367e-20, cumulative = 1.00481e-18
DICPCG:  Solving for p, Initial residual = 9.12345e-05, Final residual = 9.51589e-07, No Iterations 21
time step continuity errors : sum local = 1.20033e-09, global = -1.91046e-19, cumulative = 8.13764e-19
ExecutionTime = 0.62 s  ClockTime = 0 s

Time = 0.07

Courant Number mean: 0.0439378 max: 0.170201
smoothSolver:  Solving for Ux, Initial residual = 0.000273016, Final residual = 9.50948e-06, No Iterations 2
smoothSolver:  Solving for Uy, Initial residual = 0.000416904, Final residual = 2.70574e-06, No Iterations 3
DICPCG:  Solving for p, Initial residual = 0.000172443, Final residual = 6.84743e-07, No Iterations 13
time step continuity errors : sum local = 9.71336e-10, global = -7.00953e-20, cumulative = 7.43668e-19
DICPCG:  Solving for p, Initial residual = 9.51968e-05, Final residual = 9.16558e-07, No Iterations 19
time step continuity errors : sum local = 1.16845e-09, global = 5.55038e-20, cumulative = 7.99172e-19
ExecutionTime = 0.63 s  ClockTime = 0 s

Time = 0.071

Courant Number mean: 0.0439621 max: 0.170213
smoothSolver:  Solving for Ux, Initial residual = 0.00025945, Final residual = 9.03765e-06, No Iterations 2
smoothSolver:  Solving for Uy, Initial residual = 0.000395838, Final residual = 2.56867e-06, No Iterations 3
DICPCG:  Solving for p, Initial residual = 0.000165077, Final residual = 6.725e-07, No Iterations 13
time step continuity errors : sum local = 9.95564e-10, global = 2.03784e-19, cumulative = 1.00296e-18
DICPCG:  Solving for p, Initial residual = 9.01871e-05, Final residual = 9.46399e-07, No Iterations 19
time step continuity errors : sum local = 1.21855e-09, global = 9.5986e-20, cumulative = 1.09894e-18
ExecutionTime = 0.63 s  ClockTime = 0 s

Time = 0.072

Courant Number mean: 0.043985 max: 0.170224
smoothSolver:  Solving for Ux, Initial residual = 0.000246436, Final residual = 8.58525e-06, No Iterations 2
smoothSolver:  Solving for Uy, Initial residual = 0.000376016, Final residual = 2.43973e-06, No Iterations 3
DICPCG:  Solving for p, Initial residual = 0.000170008, Final residual = 7.41547e-07, No Iterations 13
time step continuity errors : sum local = 1.07227e-09, global = -1.5326e-19, cumulative = 9.45682e-19
DICPCG:  Solving for p, Initial residual = 8.83775e-05, Final residual = 8.9875e-07, No Iterations 22
time step continuity errors : sum local = 1.12966e-09, global = -4.03664e-21, cumulative = 9.41646e-19
ExecutionTime = 0.64 s  ClockTime = 0 s

Time = 0.073

Courant Number mean: 0.044007 max: 0.170235
smoothSolver:  Solving for Ux, Initial residual = 0.000234124, Final residual = 8.15684e-06, No Iterations 2
smoothSolver:  Solving for Uy, Initial residual = 0.000357113, Final residual = 2.31688e-06, No Iterations 3
DICPCG:  Solving for p, Initial residual = 0.000161165, Final residual = 5.97762e-07, No Iterations 13
time step continuity errors : sum local = 7.6924e-10, global = -4.18057e-20, cumulative = 8.9984e-19
DICPCG:  Solving for p, Initial residual = 7.98865e-05, Final residual = 9.00694e-07, No Iterations 12
time step continuity errors : sum local = 1.58809e-09, global = -3.11516e-20, cumulative = 8.68689e-19
ExecutionTime = 0.65 s  ClockTime = 0 s

Time = 0.074

Courant Number mean: 0.044028 max: 0.170245
smoothSolver:  Solving for Ux, Initial residual = 0.000222452, Final residual = 7.75033e-06, No Iterations 2
smoothSolver:  Solving for Uy, Initial residual = 0.000339293, Final residual = 2.20117e-06, No Iterations 3
DICPCG:  Solving for p, Initial residual = 0.000143813, Final residual = 7.00076e-07, No Iterations 20
time step continuity errors : sum local = 8.78373e-10, global = 5.3469e-20, cumulative = 9.22157e-19
DICPCG:  Solving for p, Initial residual = 7.71423e-05, Final residual = 6.05069e-07, No Iterations 12
time step continuity errors : sum local = 7.63286e-10, global = -2.57088e-20, cumulative = 8.96449e-19
ExecutionTime = 0.65 s  ClockTime = 0 s

Time = 0.075

Courant Number mean: 0.0440478 max: 0.170254
smoothSolver:  Solving for Ux, Initial residual = 0.000211199, Final residual = 7.35883e-06, No Iterations 2
smoothSolver:  Solving for Uy, Initial residual = 0.00032255, Final residual = 2.09227e-06, No Iterations 3
DICPCG:  Solving for p, Initial residual = 0.00013329, Final residual = 5.21334e-07, No Iterations 13
time step continuity errors : sum local = 7.73797e-10, global = 6.21709e-20, cumulative = 9.5862e-19
DICPCG:  Solving for p, Initial residual = 7.33626e-05, Final residual = 7.60111e-07, No Iterations 12
time step continuity errors : sum local = 1.29513e-09, global = 4.74471e-20, cumulative = 1.00607e-18
ExecutionTime = 0.66 s  ClockTime = 0 s

Time = 0.076

Courant Number mean: 0.0440667 max: 0.170263
smoothSolver:  Solving for Ux, Initial residual = 0.000200793, Final residual = 6.99622e-06, No Iterations 2
smoothSolver:  Solving for Uy, Initial residual = 0.000306251, Final residual = 1.98659e-06, No Iterations 3
DICPCG:  Solving for p, Initial residual = 0.000125977, Final residual = 4.86315e-07, No Iterations 20
time step continuity errors : sum local = 6.09235e-10, global = -1.24838e-19, cumulative = 8.81229e-19
DICPCG:  Solving for p, Initial residual = 6.95858e-05, Final residual = 5.40706e-07, No Iterations 12
time step continuity errors : sum local = 7.28723e-10, global = -8.44551e-20, cumulative = 7.96773e-19
ExecutionTime = 0.67 s  ClockTime = 0 s

Time = 0.077

Courant Number mean: 0.0440846 max: 0.170272
smoothSolver:  Solving for Ux, Initial residual = 0.000190683, Final residual = 6.64439e-06, No Iterations 2
smoothSolver:  Solving for Uy, Initial residual = 0.000291132, Final residual = 1.8883e-06, No Iterations 3
DICPCG:  Solving for p, Initial residual = 0.000119154, Final residual = 9.16852e-07, No Iterations 12
time step continuity errors : sum local = 1.15461e-09, global = 3.04237e-20, cumulative = 8.27197e-19
DICPCG:  Solving for p, Initial residual = 6.5903e-05, Final residual = 7.91827e-07, No Iterations 12
time step continuity errors : sum local = 1.38826e-09, global = 5.72409e-21, cumulative = 8.32921e-19
ExecutionTime = 0.67 s  ClockTime = 0 s

Time = 0.078

Courant Number mean: 0.0441016 max: 0.17028
smoothSolver:  Solving for Ux, Initial residual = 0.000181289, Final residual = 6.31695e-06, No Iterations 2
smoothSolver:  Solving for Uy, Initial residual = 0.000276483, Final residual = 9.62738e-06, No Iterations 2
DICPCG:  Solving for p, Initial residual = 0.000107065, Final residual = 3.96004e-07, No Iterations 20
time step continuity errors : sum local = 4.9459e-10, global = 2.42678e-19, cumulative = 1.0756e-18
DICPCG:  Solving for p, Initial residual = 5.26475e-05, Final residual = 5.05785e-07, No Iterations 19
time step continuity errors : sum local = 6.31642e-10, global = 2.80745e-20, cumulative = 1.10367e-18
ExecutionTime = 0.68 s  ClockTime = 0 s

Time = 0.079

Courant Number mean: 0.0441176 max: 0.170287
smoothSolver:  Solving for Ux, Initial residual = 0.00017215, Final residual = 5.99824e-06, No Iterations 2
smoothSolver:  Solving for Uy, Initial residual = 0.000263091, Final residual = 9.16077e-06, No Iterations 2
DICPCG:  Solving for p, Initial residual = 0.000101553, Final residual = 6.96307e-07, No Iterations 20
time step continuity errors : sum local = 8.78817e-10, global = -1.63666e-19, cumulative = 9.40008e-19
DICPCG:  Solving for p, Initial residual = 4.98104e-05, Final residual = 9.20622e-07, No Iterations 9
time step continuity errors : sum local = 1.58669e-09, global = -1.28494e-19, cumulative = 8.11514e-19
ExecutionTime = 0.69 s  ClockTime = 0 s

Time = 0.08

Courant Number mean: 0.0441329 max: 0.170294
smoothSolver:  Solving for Ux, Initial residual = 0.000163584, Final residual = 5.69958e-06, No Iterations 2
smoothSolver:  Solving for Uy, Initial residual = 0.000250177, Final residual = 8.7109e-06, No Iterations 2
DICPCG:  Solving for p, Initial residual = 9.6727e-05, Final residual = 6.16609e-07, No Iterations 10
time step continuity errors : sum local = 8.1914e-10, global = -1.32978e-19, cumulative = 6.78536e-19
DICPCG:  Solving for p, Initial residual = 4.75355e-05, Final residual = 6.72839e-07, No Iterations 9
time step continuity errors : sum local = 9.57756e-10, global = 1.56304e-19, cumulative = 8.3484e-19
ExecutionTime = 0.69 s  ClockTime = 0 s

Time = 0.081

Courant Number mean: 0.0441474 max: 0.170301
smoothSolver:  Solving for Ux, Initial residual = 0.000155566, Final residual = 5.41973e-06, No Iterations 2
smoothSolver:  Solving for Uy, Initial residual = 0.000237726, Final residual = 8.27776e-06, No Iterations 2
DICPCG:  Solving for p, Initial residual = 9.15856e-05, Final residual = 7.61804e-07, No Iterations 18
time step continuity errors : sum local = 9.59109e-10, global = -2.70653e-20, cumulative = 8.07775e-19
DICPCG:  Solving for p, Initial residual = 4.50895e-05, Final residual = 8.57182e-07, No Iterations 9
time step continuity errors : sum local = 1.52658e-09, global = -6.28657e-22, cumulative = 8.07146e-19
ExecutionTime = 0.7 s  ClockTime = 0 s

Time = 0.082

Courant Number mean: 0.0441611 max: 0.170307
smoothSolver:  Solving for Ux, Initial residual = 0.00014777, Final residual = 5.14824e-06, No Iterations 2
smoothSolver:  Solving for Uy, Initial residual = 0.000226171, Final residual = 7.8748e-06, No Iterations 2
DICPCG:  Solving for p, Initial residual = 8.74071e-05, Final residual = 5.77366e-07, No Iterations 10
time step continuity errors : sum local = 7.9516e-10, global = -1.20107e-19, cumulative = 6.8704e-19
DICPCG:  Solving for p, Initial residual = 4.29292e-05, Final residual = 6.48573e-07, No Iterations 9
time step continuity errors : sum local = 1.00015e-09, global = 3.04436e-19, cumulative = 9.91475e-19
ExecutionTime = 0.71 s  ClockTime = 1 s

Time = 0.083

Courant Number mean: 0.0441742 max: 0.170313
smoothSolver:  Solving for Ux, Initial residual = 0.000140587, Final residual = 4.89732e-06, No Iterations 2
smoothSolver:  Solving for Uy, Initial residual = 0.000214867, Final residual = 7.48167e-06, No Iterations 2
DICPCG:  Solving for p, Initial residual = 8.26606e-05, Final residual = 9.7382e-07, No Iterations 10
time step continuity errors : sum local = 1.83086e-09, global = 8.23541e-20, cumulative = 1.07383e-18
DICPCG:  Solving for p, Initial residual = 4.07727e-05, Final residual = 7.27876e-07, No Iterations 9
time step continuity errors : sum local = 1.25412e-09, global = -1.24044e-19, cumulative = 9.49785e-19
ExecutionTime = 0.71 s  ClockTime = 1 s

Time = 0.084

Courant Number mean: 0.0441866 max: 0.170319
smoothSolver:  Solving for Ux, Initial residual = 0.000133677, Final residual = 4.65656e-06, No Iterations 2
smoothSolver:  Solving for Uy, Initial residual = 0.000204253, Final residual = 7.11188e-06, No Iterations 2
DICPCG:  Solving for p, Initial residual = 7.87005e-05, Final residual = 8.02107e-07, No Iterations 18
time step continuity errors : sum local = 1.00994e-09, global = 5.42465e-20, cumulative = 1.00403e-18
DICPCG:  Solving for p, Initial residual = 3.892e-05, Final residual = 9.2154e-07, No Iterations 9
time step continuity errors : sum local = 1.71162e-09, global = 2.27243e-19, cumulative = 1.23127e-18
ExecutionTime = 0.72 s  ClockTime = 1 s

Time = 0.085

Courant Number mean: 0.0441984 max: 0.170324
smoothSolver:  Solving for Ux, Initial residual = 0.000126927, Final residual = 4.42137e-06, No Iterations 2
smoothSolver:  Solving for Uy, Initial residual = 0.000194471, Final residual = 6.76962e-06, No Iterations 2
DICPCG:  Solving for p, Initial residual = 7.53946e-05, Final residual = 9.05913e-07, No Iterations 19
time step continuity errors : sum local = 1.14113e-09, global = -1.16765e-19, cumulative = 1.11451e-18
DICPCG:  Solving for p, Initial residual = 3.70721e-05, Final residual = 5.71167e-07, No Iterations 9
time step continuity errors : sum local = 8.60989e-10, global = 1.49124e-19, cumulative = 1.26363e-18
ExecutionTime = 0.73 s  ClockTime = 1 s

Time = 0.086

Courant Number mean: 0.0442096 max: 0.170329
smoothSolver:  Solving for Ux, Initial residual = 0.000120915, Final residual = 4.21105e-06, No Iterations 2
smoothSolver:  Solving for Uy, Initial residual = 0.00018453, Final residual = 6.42529e-06, No Iterations 2
DICPCG:  Solving for p, Initial residual = 7.11749e-05, Final residual = 8.62855e-07, No Iterations 19
time step continuity errors : sum local = 1.07806e-09, global = -1.01925e-19, cumulative = 1.16171e-18
DICPCG:  Solving for p, Initial residual = 3.50657e-05, Final residual = 4.36136e-07, No Iterations 19
time step continuity errors : sum local = 5.46937e-10, global = 1.06177e-19, cumulative = 1.26789e-18
ExecutionTime = 0.73 s  ClockTime = 1 s

Time = 0.087

Courant Number mean: 0.0442203 max: 0.170334
smoothSolver:  Solving for Ux, Initial residual = 0.000114898, Final residual = 4.00168e-06, No Iterations 2
smoothSolver:  Solving for Uy, Initial residual = 0.000175538, Final residual = 6.11185e-06, No Iterations 2
DICPCG:  Solving for p, Initial residual = 6.77751e-05, Final residual = 8.18778e-07, No Iterations 10
time step continuity errors : sum local = 1.52713e-09, global = -1.05217e-19, cumulative = 1.16267e-18
DICPCG:  Solving for p, Initial residual = 3.34151e-05, Final residual = 6.35465e-07, No Iterations 9
time step continuity errors : sum local = 1.08779e-09, global = 1.90334e-19, cumulative = 1.353e-18
ExecutionTime = 0.74 s  ClockTime = 1 s

Time = 0.088

Courant Number mean: 0.0442304 max: 0.170339
smoothSolver:  Solving for Ux, Initial residual = 0.00010926, Final residual = 3.8054e-06, No Iterations 2
smoothSolver:  Solving for Uy, Initial residual = 0.000166898, Final residual = 5.81084e-06, No Iterations 2
DICPCG:  Solving for p, Initial residual = 6.40947e-05, Final residual = 9.29698e-07, No Iterations 17
time step continuity errors : sum local = 1.16599e-09, global = 1.94768e-19, cumulative = 1.54777e-18
DICPCG:  Solving for p, Initial residual = 3.16268e-05, Final residual = 7.25679e-07, No Iterations 9
time step continuity errors : sum local = 1.33614e-09, global = 1.23184e-19, cumulative = 1.67095e-18
ExecutionTime = 0.74 s  ClockTime = 1 s

Time = 0.089

Courant Number mean: 0.04424 max: 0.170343
smoothSolver:  Solving for Ux, Initial residual = 0.000103755, Final residual = 3.61391e-06, No Iterations 2
smoothSolver:  Solving for Uy, Initial residual = 0.000158911, Final residual = 5.53137e-06, No Iterations 2
DICPCG:  Solving for p, Initial residual = 6.14247e-05, Final residual = 8.58943e-07, No Iterations 10
time step continuity errors : sum local = 1.54651e-09, global = -1.13241e-19, cumulative = 1.55771e-18
DICPCG:  Solving for p, Initial residual = 3.01465e-05, Final residual = 9.29505e-07, No Iterations 9
time step continuity errors : sum local = 1.63746e-09, global = 1.56966e-19, cumulative = 1.71468e-18
ExecutionTime = 0.75 s  ClockTime = 1 s

Time = 0.09

Courant Number mean: 0.0442492 max: 0.170347
smoothSolver:  Solving for Ux, Initial residual = 9.87573e-05, Final residual = 3.43957e-06, No Iterations 2
smoothSolver:  Solving for Uy, Initial residual = 0.000150931, Final residual = 5.25479e-06, No Iterations 2
DICPCG:  Solving for p, Initial residual = 5.79709e-05, Final residual = 8.36226e-07, No Iterations 9
time step continuity errors : sum local = 1.09236e-09, global = -7.56374e-20, cumulative = 1.63904e-18
DICPCG:  Solving for p, Initial residual = 2.84707e-05, Final residual = 8.89956e-07, No Iterations 8
time step continuity errors : sum local = 1.18549e-09, global = -1.18882e-19, cumulative = 1.52016e-18
ExecutionTime = 0.76 s  ClockTime = 1 s

Time = 0.091

Courant Number mean: 0.0442579 max: 0.170351
smoothSolver:  Solving for Ux, Initial residual = 9.39643e-05, Final residual = 3.27254e-06, No Iterations 2
smoothSolver:  Solving for Uy, Initial residual = 0.000143431, Final residual = 4.9935e-06, No Iterations 2
DICPCG:  Solving for p, Initial residual = 5.49043e-05, Final residual = 8.00442e-07, No Iterations 10
time step continuity errors : sum local = 1.48918e-09, global = 4.34435e-20, cumulative = 1.5636e-18
DICPCG:  Solving for p, Initial residual = 2.70054e-05, Final residual = 5.62497e-07, No Iterations 9
time step continuity errors : sum local = 9.92239e-10, global = -1.27518e-19, cumulative = 1.43608e-18
ExecutionTime = 0.76 s  ClockTime = 1 s

Time = 0.092

Courant Number mean: 0.0442661 max: 0.170355
smoothSolver:  Solving for Ux, Initial residual = 8.93466e-05, Final residual = 3.11185e-06, No Iterations 2
smoothSolver:  Solving for Uy, Initial residual = 0.000136389, Final residual = 4.74822e-06, No Iterations 2
DICPCG:  Solving for p, Initial residual = 5.24542e-05, Final residual = 7.98453e-07, No Iterations 19
time step continuity errors : sum local = 9.99603e-10, global = -6.57443e-20, cumulative = 1.37034e-18
DICPCG:  Solving for p, Initial residual = 2.59181e-05, Final residual = 6.57299e-07, No Iterations 9
time step continuity errors : sum local = 1.217e-09, global = 9.99234e-21, cumulative = 1.38033e-18
ExecutionTime = 0.77 s  ClockTime = 1 s

Time = 0.093

Courant Number mean: 0.044274 max: 0.170358
smoothSolver:  Solving for Ux, Initial residual = 8.48684e-05, Final residual = 2.95608e-06, No Iterations 2
smoothSolver:  Solving for Uy, Initial residual = 0.000129851, Final residual = 4.51943e-06, No Iterations 2
DICPCG:  Solving for p, Initial residual = 5.01907e-05, Final residual = 8.86542e-07, No Iterations 10
time step continuity errors : sum local = 1.57672e-09, global = -2.12056e-19, cumulative = 1.16828e-18
DICPCG:  Solving for p, Initial residual = 2.46767e-05, Final residual = 9.03407e-07, No Iterations 9
time step continuity errors : sum local = 1.60646e-09, global = 7.20474e-20, cumulative = 1.24032e-18
ExecutionTime = 0.78 s  ClockTime = 1 s

Time = 0.094

Courant Number mean: 0.0442814 max: 0.170362
smoothSolver:  Solving for Ux, Initial residual = 8.07645e-05, Final residual = 2.81297e-06, No Iterations 2
smoothSolver:  Solving for Uy, Initial residual = 0.000123363, Final residual = 4.29468e-06, No Iterations 2
DICPCG:  Solving for p, Initial residual = 4.74731e-05, Final residual = 6.84575e-07, No Iterations 9
time step continuity errors : sum local = 8.82931e-10, global = 5.7274e-20, cumulative = 1.2976e-18
DICPCG:  Solving for p, Initial residual = 2.33149e-05, Final residual = 7.68018e-07, No Iterations 8
time step continuity errors : sum local = 1.09233e-09, global = -2.27028e-19, cumulative = 1.07057e-18
ExecutionTime = 0.78 s  ClockTime = 1 s

Time = 0.095

Courant Number mean: 0.0442885 max: 0.170365
smoothSolver:  Solving for Ux, Initial residual = 7.68452e-05, Final residual = 2.6765e-06, No Iterations 2
smoothSolver:  Solving for Uy, Initial residual = 0.000117241, Final residual = 4.08137e-06, No Iterations 2
DICPCG:  Solving for p, Initial residual = 4.47911e-05, Final residual = 7.71198e-07, No Iterations 9
time step continuity errors : sum local = 1.2917e-09, global = 1.68431e-19, cumulative = 1.239e-18
DICPCG:  Solving for p, Initial residual = 2.19008e-05, Final residual = 7.45698e-07, No Iterations 6
time step continuity errors : sum local = 1.15942e-09, global = 5.71416e-20, cumulative = 1.29614e-18
ExecutionTime = 0.79 s  ClockTime = 1 s

Time = 0.096

Courant Number mean: 0.0442952 max: 0.170368
smoothSolver:  Solving for Ux, Initial residual = 7.30919e-05, Final residual = 2.54586e-06, No Iterations 2
smoothSolver:  Solving for Uy, Initial residual = 0.000111449, Final residual = 3.87975e-06, No Iterations 2
DICPCG:  Solving for p, Initial residual = 4.25313e-05, Final residual = 9.85125e-07, No Iterations 18
time step continuity errors : sum local = 1.23298e-09, global = -4.68846e-20, cumulative = 1.24926e-18
DICPCG:  Solving for p, Initial residual = 2.11278e-05, Final residual = 6.06793e-07, No Iterations 6
time step continuity errors : sum local = 1.00092e-09, global = -1.00254e-19, cumulative = 1.149e-18
ExecutionTime = 0.79 s  ClockTime = 1 s

Time = 0.097

Courant Number mean: 0.0443016 max: 0.170371
smoothSolver:  Solving for Ux, Initial residual = 6.94045e-05, Final residual = 2.41766e-06, No Iterations 2
smoothSolver:  Solving for Uy, Initial residual = 0.000106149, Final residual = 3.69439e-06, No Iterations 2
DICPCG:  Solving for p, Initial residual = 4.07842e-05, Final residual = 9.17814e-07, No Iterations 6
time step continuity errors : sum local = 1.50253e-09, global = 1.80325e-20, cumulative = 1.16704e-18
DICPCG:  Solving for p, Initial residual = 1.99773e-05, Final residual = 9.41615e-07, No Iterations 5
time step continuity errors : sum local = 1.50391e-09, global = -1.4608e-19, cumulative = 1.02096e-18
ExecutionTime = 0.8 s  ClockTime = 1 s

Time = 0.098

Courant Number mean: 0.0443077 max: 0.170373
smoothSolver:  Solving for Ux, Initial residual = 6.60943e-05, Final residual = 2.3021e-06, No Iterations 2
smoothSolver:  Solving for Uy, Initial residual = 0.00010079, Final residual = 3.50868e-06, No Iterations 2
DICPCG:  Solving for p, Initial residual = 3.90854e-05, Final residual = 5.69847e-07, No Iterations 9
time step continuity errors : sum local = 7.22172e-10, global = 2.0878e-20, cumulative = 1.04183e-18
DICPCG:  Solving for p, Initial residual = 1.91399e-05, Final residual = 6.65752e-07, No Iterations 6
time step continuity errors : sum local = 9.01082e-10, global = -1.30314e-19, cumulative = 9.1152e-19
ExecutionTime = 0.81 s  ClockTime = 1 s

Time = 0.099

Courant Number mean: 0.0443135 max: 0.170376
smoothSolver:  Solving for Ux, Initial residual = 6.28608e-05, Final residual = 2.18952e-06, No Iterations 2
smoothSolver:  Solving for Uy, Initial residual = 9.58313e-05, Final residual = 3.33593e-06, No Iterations 2
DICPCG:  Solving for p, Initial residual = 3.6281e-05, Final residual = 6.9168e-07, No Iterations 6
time step continuity errors : sum local = 1.08228e-09, global = -8.21556e-20, cumulative = 8.29364e-19
DICPCG:  Solving for p, Initial residual = 1.791e-05, Final residual = 8.31518e-07, No Iterations 5
time step continuity errors : sum local = 1.20839e-09, global = -3.13832e-20, cumulative = 7.97981e-19
ExecutionTime = 0.81 s  ClockTime = 1 s

Time = 0.1

Courant Number mean: 0.044319 max: 0.170378
smoothSolver:  Solving for Ux, Initial residual = 5.97777e-05, Final residual = 2.08221e-06, No Iterations 2
smoothSolver:  Solving for Uy, Initial residual = 9.11388e-05, Final residual = 3.17244e-06, No Iterations 2
DICPCG:  Solving for p, Initial residual = 3.54266e-05, Final residual = 9.55098e-07, No Iterations 9
time step continuity errors : sum local = 1.75387e-09, global = 1.70383e-19, cumulative = 9.68364e-19
DICPCG:  Solving for p, Initial residual = 1.7437e-05, Final residual = 8.40125e-07, No Iterations 8
time step continuity errors : sum local = 1.42735e-09, global = 9.44309e-20, cumulative = 1.06279e-18
ExecutionTime = 0.85 s  ClockTime = 1 s

Time = 0.101

Courant Number mean: 0.0443242 max: 0.170381
smoothSolver:  Solving for Ux, Initial residual = 5.68413e-05, Final residual = 1.97999e-06, No Iterations 2
smoothSolver:  Solving for Uy, Initial residual = 8.66861e-05, Final residual = 3.01732e-06, No Iterations 2
DICPCG:  Solving for p, Initial residual = 3.30996e-05, Final residual = 9.77088e-07, No Iterations 17
time step continuity errors : sum local = 1.22465e-09, global = 1.41117e-20, cumulative = 1.07691e-18
DICPCG:  Solving for p, Initial residual = 1.64164e-05, Final residual = 7.19611e-07, No Iterations 8
time step continuity errors : sum local = 1.17693e-09, global = 7.43139e-20, cumulative = 1.15122e-18
ExecutionTime = 0.85 s  ClockTime = 1 s

Time = 0.102

Courant Number mean: 0.0443292 max: 0.170383
smoothSolver:  Solving for Ux, Initial residual = 5.39613e-05, Final residual = 1.87994e-06, No Iterations 2
smoothSolver:  Solving for Uy, Initial residual = 8.25885e-05, Final residual = 2.87359e-06, No Iterations 2
DICPCG:  Solving for p, Initial residual = 3.1954e-05, Final residual = 4.61924e-07, No Iterations 19
time step continuity errors : sum local = 5.94693e-10, global = 2.39386e-20, cumulative = 1.17516e-18
DICPCG:  Solving for p, Initial residual = 1.56283e-05, Final residual = 9.53507e-07, No Iterations 5
time step continuity errors : sum local = 1.36195e-09, global = -1.80061e-19, cumulative = 9.95098e-19
ExecutionTime = 0.86 s  ClockTime = 1 s

Time = 0.103

Courant Number mean: 0.0443339 max: 0.170385
smoothSolver:  Solving for Ux, Initial residual = 5.14895e-05, Final residual = 9.61095e-06, No Iterations 1
smoothSolver:  Solving for Uy, Initial residual = 7.82662e-05, Final residual = 2.72456e-06, No Iterations 2
DICPCG:  Solving for p, Initial residual = 5.57029e-05, Final residual = 3.79448e-07, No Iterations 19
time step continuity errors : sum local = 4.7392e-10, global = -1.68431e-19, cumulative = 8.26668e-19
DICPCG:  Solving for p, Initial residual = 4.41288e-05, Final residual = 6.46133e-07, No Iterations 18
time step continuity errors : sum local = 8.05497e-10, global = -1.62955e-20, cumulative = 8.10372e-19
ExecutionTime = 0.87 s  ClockTime = 1 s

Time = 0.104

Courant Number mean: 0.0443383 max: 0.170387
smoothSolver:  Solving for Ux, Initial residual = 4.90721e-05, Final residual = 9.16378e-06, No Iterations 1
smoothSolver:  Solving for Uy, Initial residual = 7.4504e-05, Final residual = 2.59198e-06, No Iterations 2
DICPCG:  Solving for p, Initial residual = 5.22857e-05, Final residual = 3.59161e-07, No Iterations 19
time step continuity errors : sum local = 4.49614e-10, global = -5.45277e-20, cumulative = 7.55845e-19
DICPCG:  Solving for p, Initial residual = 4.15701e-05, Final residual = 6.2349e-07, No Iterations 18
time step continuity errors : sum local = 7.77176e-10, global = 1.81649e-20, cumulative = 7.74009e-19
ExecutionTime = 0.87 s  ClockTime = 1 s

Time = 0.105

Courant Number mean: 0.0443425 max: 0.170389
smoothSolver:  Solving for Ux, Initial residual = 4.67906e-05, Final residual = 8.73994e-06, No Iterations 1
smoothSolver:  Solving for Uy, Initial residual = 7.08713e-05, Final residual = 2.46475e-06, No Iterations 2
DICPCG:  Solving for p, Initial residual = 4.97335e-05, Final residual = 7.91576e-07, No Iterations 19
time step continuity errors : sum local = 1.015e-09, global = -8.21059e-20, cumulative = 6.91903e-19
DICPCG:  Solving for p, Initial residual = 3.95558e-05, Final residual = 5.19382e-07, No Iterations 21
time step continuity errors : sum local = 6.53632e-10, global = -1.88928e-20, cumulative = 6.73011e-19
ExecutionTime = 0.88 s  ClockTime = 1 s

Time = 0.106

Courant Number mean: 0.0443464 max: 0.17039
smoothSolver:  Solving for Ux, Initial residual = 4.45935e-05, Final residual = 8.3309e-06, No Iterations 1
smoothSolver:  Solving for Uy, Initial residual = 6.74544e-05, Final residual = 2.3453e-06, No Iterations 2
DICPCG:  Solving for p, Initial residual = 4.72676e-05, Final residual = 6.16729e-07, No Iterations 19
time step continuity errors : sum local = 7.87991e-10, global = -2.05819e-19, cumulative = 4.67192e-19
DICPCG:  Solving for p, Initial residual = 3.75781e-05, Final residual = 8.57356e-07, No Iterations 18
time step continuity errors : sum local = 1.09128e-09, global = -2.36044e-19, cumulative = 2.31147e-19
ExecutionTime = 0.89 s  ClockTime = 1 s

Time = 0.107

Courant Number mean: 0.0443502 max: 0.170392
smoothSolver:  Solving for Ux, Initial residual = 4.2493e-05, Final residual = 7.9394e-06, No Iterations 1
smoothSolver:  Solving for Uy, Initial residual = 6.41883e-05, Final residual = 2.23145e-06, No Iterations 2
DICPCG:  Solving for p, Initial residual = 4.51339e-05, Final residual = 7.57822e-07, No Iterations 21
time step continuity errors : sum local = 9.57051e-10, global = -9.21479e-21, cumulative = 2.21933e-19
DICPCG:  Solving for p, Initial residual = 3.56357e-05, Final residual = 9.27581e-07, No Iterations 18
time step continuity errors : sum local = 1.18678e-09, global = -2.44796e-19, cumulative = -2.28633e-20
ExecutionTime = 0.89 s  ClockTime = 1 s

Time = 0.108

Courant Number mean: 0.0443538 max: 0.170394
smoothSolver:  Solving for Ux, Initial residual = 4.0484e-05, Final residual = 7.56485e-06, No Iterations 1
smoothSolver:  Solving for Uy, Initial residual = 6.11137e-05, Final residual = 2.12419e-06, No Iterations 2
DICPCG:  Solving for p, Initial residual = 4.28347e-05, Final residual = 8.94657e-07, No Iterations 19
time step continuity errors : sum local = 1.15435e-09, global = -7.62661e-20, cumulative = -9.91293e-20
DICPCG:  Solving for p, Initial residual = 3.40576e-05, Final residual = 4.46774e-07, No Iterations 21
time step continuity errors : sum local = 5.62773e-10, global = 8.57952e-20, cumulative = -1.33342e-20
ExecutionTime = 0.9 s  ClockTime = 1 s

Time = 0.109

Courant Number mean: 0.0443572 max: 0.170395
smoothSolver:  Solving for Ux, Initial residual = 3.85705e-05, Final residual = 7.20751e-06, No Iterations 1
smoothSolver:  Solving for Uy, Initial residual = 5.81817e-05, Final residual = 2.02208e-06, No Iterations 2
DICPCG:  Solving for p, Initial residual = 4.07597e-05, Final residual = 4.56223e-07, No Iterations 19
time step continuity errors : sum local = 5.80648e-10, global = -4.55611e-20, cumulative = -5.88953e-20
DICPCG:  Solving for p, Initial residual = 3.23872e-05, Final residual = 6.65412e-07, No Iterations 18
[...]
time step continuity errors : sum local = 9.80458e-10, global = 1.22754e-20, cumulative = 2.51908e-18
DICPCG:  Solving for p, Initial residual = 6.5934e-07, Final residual = 6.5934e-07, No Iterations 0
time step continuity errors : sum local = 1.09005e-09, global = -1.78075e-19, cumulative = 2.341e-18
ExecutionTime = 3.12 s  ClockTime = 11 s

Time = 0.474

Courant Number mean: 0.0444251 max: 0.170424
smoothSolver:  Solving for Ux, Initial residual = 6.73423e-09, Final residual = 6.73423e-09, No Iterations 0
smoothSolver:  Solving for Uy, Initial residual = 9.14921e-09, Final residual = 9.14921e-09, No Iterations 0
DICPCG:  Solving for p, Initial residual = 8.4393e-07, Final residual = 8.4393e-07, No Iterations 0
time step continuity errors : sum local = 1.32048e-09, global = -2.46616e-19, cumulative = 2.09439e-18
DICPCG:  Solving for p, Initial residual = 9.05743e-07, Final residual = 9.05743e-07, No Iterations 0
time step continuity errors : sum local = 1.39762e-09, global = 1.05813e-19, cumulative = 2.2002e-18
ExecutionTime = 3.13 s  ClockTime = 11 s

Time = 0.475

Courant Number mean: 0.0444251 max: 0.170424
smoothSolver:  Solving for Ux, Initial residual = 5.3546e-09, Final residual = 5.3546e-09, No Iterations 0
smoothSolver:  Solving for Uy, Initial residual = 6.69313e-09, Final residual = 6.69313e-09, No Iterations 0
DICPCG:  Solving for p, Initial residual = 1.02555e-06, Final residual = 3.29594e-07, No Iterations 1
time step continuity errors : sum local = 6.77278e-10, global = -1.61995e-19, cumulative = 2.03821e-18
DICPCG:  Solving for p, Initial residual = 5.30153e-07, Final residual = 5.30153e-07, No Iterations 0
time step continuity errors : sum local = 9.27717e-10, global = -9.96256e-20, cumulative = 1.93858e-18
ExecutionTime = 3.13 s  ClockTime = 11 s

Time = 0.476

Courant Number mean: 0.0444251 max: 0.170424
smoothSolver:  Solving for Ux, Initial residual = 1.63721e-08, Final residual = 1.63721e-08, No Iterations 0
smoothSolver:  Solving for Uy, Initial residual = 2.58712e-08, Final residual = 2.58712e-08, No Iterations 0
DICPCG:  Solving for p, Initial residual = 1.10666e-06, Final residual = 2.2375e-07, No Iterations 1
time step continuity errors : sum local = 5.43884e-10, global = -1.61433e-19, cumulative = 1.77715e-18
DICPCG:  Solving for p, Initial residual = 2.84497e-07, Final residual = 2.84497e-07, No Iterations 0
time step continuity errors : sum local = 6.1968e-10, global = 1.26228e-20, cumulative = 1.78977e-18
ExecutionTime = 3.14 s  ClockTime = 11 s

Time = 0.477

Courant Number mean: 0.0444251 max: 0.170424
smoothSolver:  Solving for Ux, Initial residual = 9.24546e-09, Final residual = 9.24546e-09, No Iterations 0
smoothSolver:  Solving for Uy, Initial residual = 1.3411e-08, Final residual = 1.3411e-08, No Iterations 0
DICPCG:  Solving for p, Initial residual = 5.74512e-07, Final residual = 5.74512e-07, No Iterations 0
time step continuity errors : sum local = 9.81605e-10, global = 4.09785e-20, cumulative = 1.83075e-18
DICPCG:  Solving for p, Initial residual = 6.63846e-07, Final residual = 6.63846e-07, No Iterations 0
time step continuity errors : sum local = 1.09315e-09, global = 1.41018e-19, cumulative = 1.97177e-18
ExecutionTime = 3.14 s  ClockTime = 11 s

Time = 0.478

Courant Number mean: 0.0444251 max: 0.170424
smoothSolver:  Solving for Ux, Initial residual = 6.94749e-09, Final residual = 6.94749e-09, No Iterations 0
smoothSolver:  Solving for Uy, Initial residual = 9.23761e-09, Final residual = 9.23761e-09, No Iterations 0
DICPCG:  Solving for p, Initial residual = 8.50389e-07, Final residual = 8.50389e-07, No Iterations 0
time step continuity errors : sum local = 1.32608e-09, global = 1.71673e-19, cumulative = 2.14344e-18
DICPCG:  Solving for p, Initial residual = 9.12643e-07, Final residual = 9.12643e-07, No Iterations 0
time step continuity errors : sum local = 1.40381e-09, global = 1.4029e-19, cumulative = 2.28373e-18
ExecutionTime = 3.15 s  ClockTime = 11 s

Time = 0.479

Courant Number mean: 0.0444251 max: 0.170424
smoothSolver:  Solving for Ux, Initial residual = 5.57497e-09, Final residual = 5.57497e-09, No Iterations 0
smoothSolver:  Solving for Uy, Initial residual = 6.76706e-09, Final residual = 6.76706e-09, No Iterations 0
DICPCG:  Solving for p, Initial residual = 1.03374e-06, Final residual = 3.38197e-07, No Iterations 1
time step continuity errors : sum local = 6.85859e-10, global = 1.21066e-19, cumulative = 2.4048e-18
DICPCG:  Solving for p, Initial residual = 5.42321e-07, Final residual = 5.42321e-07, No Iterations 0
time step continuity errors : sum local = 9.40752e-10, global = 2.81407e-20, cumulative = 2.43294e-18
ExecutionTime = 3.15 s  ClockTime = 11 s

Time = 0.48

Courant Number mean: 0.0444251 max: 0.170424
smoothSolver:  Solving for Ux, Initial residual = 1.66631e-08, Final residual = 1.66631e-08, No Iterations 0
smoothSolver:  Solving for Uy, Initial residual = 2.64115e-08, Final residual = 2.64115e-08, No Iterations 0
DICPCG:  Solving for p, Initial residual = 1.12291e-06, Final residual = 2.22137e-07, No Iterations 1
time step continuity errors : sum local = 5.39707e-10, global = 2.58775e-19, cumulative = 2.69171e-18
DICPCG:  Solving for p, Initial residual = 2.82177e-07, Final residual = 2.82177e-07, No Iterations 0
time step continuity errors : sum local = 6.14585e-10, global = -1.94784e-19, cumulative = 2.49693e-18
ExecutionTime = 3.16 s  ClockTime = 11 s

Time = 0.481

Courant Number mean: 0.0444251 max: 0.170424
smoothSolver:  Solving for Ux, Initial residual = 9.52853e-09, Final residual = 9.52853e-09, No Iterations 0
smoothSolver:  Solving for Uy, Initial residual = 1.36064e-08, Final residual = 1.36064e-08, No Iterations 0
DICPCG:  Solving for p, Initial residual = 5.79297e-07, Final residual = 5.79297e-07, No Iterations 0
time step continuity errors : sum local = 9.85349e-10, global = 1.15574e-19, cumulative = 2.6125e-18
DICPCG:  Solving for p, Initial residual = 6.69729e-07, Final residual = 6.69729e-07, No Iterations 0
time step continuity errors : sum local = 1.09823e-09, global = -6.7134e-20, cumulative = 2.54537e-18
ExecutionTime = 3.16 s  ClockTime = 11 s

Time = 0.482

Courant Number mean: 0.0444251 max: 0.170424
smoothSolver:  Solving for Ux, Initial residual = 7.16398e-09, Final residual = 7.16398e-09, No Iterations 0
smoothSolver:  Solving for Uy, Initial residual = 9.51907e-09, Final residual = 9.51907e-09, No Iterations 0
DICPCG:  Solving for p, Initial residual = 8.59567e-07, Final residual = 8.59567e-07, No Iterations 0
time step continuity errors : sum local = 1.33522e-09, global = 1.14134e-19, cumulative = 2.6595e-18
DICPCG:  Solving for p, Initial residual = 9.238e-07, Final residual = 9.238e-07, No Iterations 0
time step continuity errors : sum local = 1.41539e-09, global = 1.0085e-19, cumulative = 2.76035e-18
ExecutionTime = 3.17 s  ClockTime = 11 s

Time = 0.483

Courant Number mean: 0.0444251 max: 0.170424
smoothSolver:  Solving for Ux, Initial residual = 5.75343e-09, Final residual = 5.75343e-09, No Iterations 0
smoothSolver:  Solving for Uy, Initial residual = 7.0151e-09, Final residual = 7.0151e-09, No Iterations 0
DICPCG:  Solving for p, Initial residual = 1.04847e-06, Final residual = 3.44377e-07, No Iterations 1
time step continuity errors : sum local = 6.90931e-10, global = -1.38635e-20, cumulative = 2.74649e-18
DICPCG:  Solving for p, Initial residual = 5.51811e-07, Final residual = 5.51811e-07, No Iterations 0
time step continuity errors : sum local = 9.49961e-10, global = 3.31865e-20, cumulative = 2.77967e-18
ExecutionTime = 3.17 s  ClockTime = 11 s

Time = 0.484

Courant Number mean: 0.0444251 max: 0.170424
smoothSolver:  Solving for Ux, Initial residual = 1.70057e-08, Final residual = 1.70057e-08, No Iterations 0
smoothSolver:  Solving for Uy, Initial residual = 2.66527e-08, Final residual = 2.66527e-08, No Iterations 0
DICPCG:  Solving for p, Initial residual = 1.14403e-06, Final residual = 2.20352e-07, No Iterations 1
time step continuity errors : sum local = 5.34823e-10, global = -3.72893e-20, cumulative = 2.74239e-18
DICPCG:  Solving for p, Initial residual = 2.83489e-07, Final residual = 2.83489e-07, No Iterations 0
time step continuity errors : sum local = 6.1362e-10, global = 1.78241e-19, cumulative = 2.92063e-18
ExecutionTime = 3.18 s  ClockTime = 11 s

Time = 0.485

Courant Number mean: 0.0444251 max: 0.170424
smoothSolver:  Solving for Ux, Initial residual = 9.77339e-09, Final residual = 9.77339e-09, No Iterations 0
smoothSolver:  Solving for Uy, Initial residual = 1.39192e-08, Final residual = 1.39192e-08, No Iterations 0
DICPCG:  Solving for p, Initial residual = 5.8476e-07, Final residual = 5.8476e-07, No Iterations 0
time step continuity errors : sum local = 9.89635e-10, global = -7.48433e-20, cumulative = 2.84578e-18
DICPCG:  Solving for p, Initial residual = 6.78495e-07, Final residual = 6.78495e-07, No Iterations 0
time step continuity errors : sum local = 1.10669e-09, global = 1.13324e-19, cumulative = 2.95911e-18
ExecutionTime = 3.18 s  ClockTime = 11 s

Time = 0.486

Courant Number mean: 0.0444251 max: 0.170424
smoothSolver:  Solving for Ux, Initial residual = 7.42344e-09, Final residual = 7.42344e-09, No Iterations 0
smoothSolver:  Solving for Uy, Initial residual = 9.62866e-09, Final residual = 9.62866e-09, No Iterations 0
DICPCG:  Solving for p, Initial residual = 8.73402e-07, Final residual = 8.73402e-07, No Iterations 0
time step continuity errors : sum local = 1.35008e-09, global = -9.80209e-20, cumulative = 2.86109e-18
DICPCG:  Solving for p, Initial residual = 9.38864e-07, Final residual = 9.38864e-07, No Iterations 0
time step continuity errors : sum local = 1.43182e-09, global = 2.48816e-20, cumulative = 2.88597e-18
ExecutionTime = 3.19 s  ClockTime = 11 s

Time = 0.487

Courant Number mean: 0.0444251 max: 0.170424
smoothSolver:  Solving for Ux, Initial residual = 6.01499e-09, Final residual = 6.01499e-09, No Iterations 0
smoothSolver:  Solving for Uy, Initial residual = 7.12478e-09, Final residual = 7.12478e-09, No Iterations 0
DICPCG:  Solving for p, Initial residual = 1.06574e-06, Final residual = 3.55866e-07, No Iterations 1
time step continuity errors : sum local = 7.03183e-10, global = -8.37107e-21, cumulative = 2.8776e-18
DICPCG:  Solving for p, Initial residual = 5.65495e-07, Final residual = 5.65495e-07, No Iterations 0
time step continuity errors : sum local = 9.64952e-10, global = 2.2453e-19, cumulative = 3.10213e-18
ExecutionTime = 3.19 s  ClockTime = 11 s

Time = 0.488

Courant Number mean: 0.0444251 max: 0.170424
smoothSolver:  Solving for Ux, Initial residual = 1.74346e-08, Final residual = 1.74346e-08, No Iterations 0
smoothSolver:  Solving for Uy, Initial residual = 2.72359e-08, Final residual = 2.72359e-08, No Iterations 0
DICPCG:  Solving for p, Initial residual = 1.16482e-06, Final residual = 2.18755e-07, No Iterations 1
time step continuity errors : sum local = 5.30727e-10, global = 8.54312e-20, cumulative = 3.18756e-18
DICPCG:  Solving for p, Initial residual = 2.82848e-07, Final residual = 2.82848e-07, No Iterations 0
time step continuity errors : sum local = 6.1068e-10, global = -2.5861e-19, cumulative = 2.92895e-18
ExecutionTime = 3.2 s  ClockTime = 11 s

Time = 0.489

Courant Number mean: 0.0444251 max: 0.170424
smoothSolver:  Solving for Ux, Initial residual = 1.01397e-08, Final residual = 1.01397e-08, No Iterations 0
smoothSolver:  Solving for Uy, Initial residual = 1.4237e-08, Final residual = 1.4237e-08, No Iterations 0
DICPCG:  Solving for p, Initial residual = 5.91329e-07, Final residual = 5.91329e-07, No Iterations 0
time step continuity errors : sum local = 9.95661e-10, global = -9.65651e-20, cumulative = 2.83238e-18
DICPCG:  Solving for p, Initial residual = 6.86262e-07, Final residual = 6.86262e-07, No Iterations 0
time step continuity errors : sum local = 1.11417e-09, global = 1.22191e-19, cumulative = 2.95457e-18
ExecutionTime = 3.2 s  ClockTime = 11 s

Time = 0.49

Courant Number mean: 0.0444251 max: 0.170424
smoothSolver:  Solving for Ux, Initial residual = 7.70281e-09, Final residual = 7.70281e-09, No Iterations 0
smoothSolver:  Solving for Uy, Initial residual = 9.98822e-09, Final residual = 9.98822e-09, No Iterations 0
DICPCG:  Solving for p, Initial residual = 8.84322e-07, Final residual = 8.84322e-07, No Iterations 0
time step continuity errors : sum local = 1.36145e-09, global = -8.09975e-20, cumulative = 2.87358e-18
DICPCG:  Solving for p, Initial residual = 9.51664e-07, Final residual = 9.51664e-07, No Iterations 0
time step continuity errors : sum local = 1.4455e-09, global = -1.56867e-19, cumulative = 2.71671e-18
ExecutionTime = 3.21 s  ClockTime = 11 s

Time = 0.491

Courant Number mean: 0.0444251 max: 0.170424
smoothSolver:  Solving for Ux, Initial residual = 6.23346e-09, Final residual = 6.23346e-09, No Iterations 0
smoothSolver:  Solving for Uy, Initial residual = 7.42095e-09, Final residual = 7.42095e-09, No Iterations 0
DICPCG:  Solving for p, Initial residual = 1.08146e-06, Final residual = 3.64639e-07, No Iterations 1
time step continuity errors : sum local = 7.11502e-10, global = 1.41944e-19, cumulative = 2.85865e-18
DICPCG:  Solving for p, Initial residual = 5.80896e-07, Final residual = 5.80896e-07, No Iterations 0
time step continuity errors : sum local = 9.81556e-10, global = 7.44959e-20, cumulative = 2.93315e-18
ExecutionTime = 3.21 s  ClockTime = 11 s

Time = 0.492

Courant Number mean: 0.0444251 max: 0.170424
smoothSolver:  Solving for Ux, Initial residual = 1.78903e-08, Final residual = 1.78903e-08, No Iterations 0
smoothSolver:  Solving for Uy, Initial residual = 2.78452e-08, Final residual = 2.78452e-08, No Iterations 0
DICPCG:  Solving for p, Initial residual = 1.19754e-06, Final residual = 2.17441e-07, No Iterations 1
time step continuity errors : sum local = 5.26437e-10, global = -1.53095e-19, cumulative = 2.78006e-18
DICPCG:  Solving for p, Initial residual = 2.84799e-07, Final residual = 2.84799e-07, No Iterations 0
time step continuity errors : sum local = 6.10523e-10, global = 9.53408e-20, cumulative = 2.8754e-18
ExecutionTime = 3.22 s  ClockTime = 11 s

Time = 0.493

Courant Number mean: 0.0444251 max: 0.170424
smoothSolver:  Solving for Ux, Initial residual = 1.04464e-08, Final residual = 1.04464e-08, No Iterations 0
smoothSolver:  Solving for Uy, Initial residual = 1.45845e-08, Final residual = 1.45845e-08, No Iterations 0
DICPCG:  Solving for p, Initial residual = 5.99225e-07, Final residual = 5.99225e-07, No Iterations 0
time step continuity errors : sum local = 1.003e-09, global = 1.45253e-19, cumulative = 3.02065e-18
DICPCG:  Solving for p, Initial residual = 6.98145e-07, Final residual = 6.98145e-07, No Iterations 0
time step continuity errors : sum local = 1.12654e-09, global = -6.10956e-20, cumulative = 2.95955e-18
ExecutionTime = 3.23 s  ClockTime = 11 s

Time = 0.494

Courant Number mean: 0.0444251 max: 0.170424
smoothSolver:  Solving for Ux, Initial residual = 8.03244e-09, Final residual = 8.03244e-09, No Iterations 0
smoothSolver:  Solving for Uy, Initial residual = 1.01852e-08, Final residual = 1.01852e-08, No Iterations 0
DICPCG:  Solving for p, Initial residual = 9.04216e-07, Final residual = 9.04216e-07, No Iterations 0
time step continuity errors : sum local = 1.3839e-09, global = -2.96462e-20, cumulative = 2.92991e-18
DICPCG:  Solving for p, Initial residual = 9.73452e-07, Final residual = 9.73452e-07, No Iterations 0
time step continuity errors : sum local = 1.47036e-09, global = -3.59658e-20, cumulative = 2.89394e-18
ExecutionTime = 3.23 s  ClockTime = 11 s

Time = 0.495

Courant Number mean: 0.0444251 max: 0.170424
smoothSolver:  Solving for Ux, Initial residual = 6.5583e-09, Final residual = 6.5583e-09, No Iterations 0
smoothSolver:  Solving for Uy, Initial residual = 7.61452e-09, Final residual = 7.61452e-09, No Iterations 0
DICPCG:  Solving for p, Initial residual = 1.10705e-06, Final residual = 3.78199e-07, No Iterations 1
time step continuity errors : sum local = 7.26412e-10, global = 6.543e-20, cumulative = 2.95937e-18
DICPCG:  Solving for p, Initial residual = 5.95858e-07, Final residual = 5.95858e-07, No Iterations 0
time step continuity errors : sum local = 9.98212e-10, global = -7.07901e-20, cumulative = 2.88858e-18
ExecutionTime = 3.24 s  ClockTime = 11 s

Time = 0.496

Courant Number mean: 0.0444251 max: 0.170424
smoothSolver:  Solving for Ux, Initial residual = 1.84388e-08, Final residual = 1.84388e-08, No Iterations 0
smoothSolver:  Solving for Uy, Initial residual = 2.84812e-08, Final residual = 2.84812e-08, No Iterations 0
DICPCG:  Solving for p, Initial residual = 1.2254e-06, Final residual = 2.15402e-07, No Iterations 1
time step continuity errors : sum local = 5.21862e-10, global = 2.50636e-20, cumulative = 2.91365e-18
DICPCG:  Solving for p, Initial residual = 2.85582e-07, Final residual = 2.85582e-07, No Iterations 0
time step continuity errors : sum local = 6.09432e-10, global = 1.15805e-19, cumulative = 3.02945e-18
ExecutionTime = 3.24 s  ClockTime = 11 s

Time = 0.497

Courant Number mean: 0.0444251 max: 0.170424
smoothSolver:  Solving for Ux, Initial residual = 1.09346e-08, Final residual = 1.09346e-08, No Iterations 0
smoothSolver:  Solving for Uy, Initial residual = 1.511e-08, Final residual = 1.511e-08, No Iterations 0
DICPCG:  Solving for p, Initial residual = 6.10954e-07, Final residual = 6.10954e-07, No Iterations 0
time step continuity errors : sum local = 1.01554e-09, global = 1.67934e-19, cumulative = 3.19738e-18
DICPCG:  Solving for p, Initial residual = 7.11543e-07, Final residual = 7.11543e-07, No Iterations 0
time step continuity errors : sum local = 1.14112e-09, global = 7.47275e-20, cumulative = 3.27211e-18
ExecutionTime = 3.25 s  ClockTime = 11 s

Time = 0.498

Courant Number mean: 0.0444251 max: 0.170424
smoothSolver:  Solving for Ux, Initial residual = 8.38907e-09, Final residual = 8.38907e-09, No Iterations 0
smoothSolver:  Solving for Uy, Initial residual = 1.06589e-08, Final residual = 1.06589e-08, No Iterations 0
DICPCG:  Solving for p, Initial residual = 9.20721e-07, Final residual = 9.20721e-07, No Iterations 0
time step continuity errors : sum local = 1.4023e-09, global = -9.81036e-20, cumulative = 3.17401e-18
DICPCG:  Solving for p, Initial residual = 9.91762e-07, Final residual = 9.91762e-07, No Iterations 0
time step continuity errors : sum local = 1.49098e-09, global = -6.04173e-20, cumulative = 3.11359e-18
ExecutionTime = 3.25 s  ClockTime = 11 s

Time = 0.499

Courant Number mean: 0.0444251 max: 0.170424
smoothSolver:  Solving for Ux, Initial residual = 6.83118e-09, Final residual = 6.83118e-09, No Iterations 0
smoothSolver:  Solving for Uy, Initial residual = 7.96766e-09, Final residual = 7.96766e-09, No Iterations 0
DICPCG:  Solving for p, Initial residual = 1.12993e-06, Final residual = 3.92026e-07, No Iterations 1
time step continuity errors : sum local = 7.41053e-10, global = -2.95006e-19, cumulative = 2.81859e-18
DICPCG:  Solving for p, Initial residual = 6.21203e-07, Final residual = 6.21203e-07, No Iterations 0
time step continuity errors : sum local = 1.02725e-09, global = 2.17962e-19, cumulative = 3.03655e-18
ExecutionTime = 3.26 s  ClockTime = 11 s

Time = 0.5

Courant Number mean: 0.0444251 max: 0.170424
smoothSolver:  Solving for Ux, Initial residual = 1.91037e-08, Final residual = 1.91037e-08, No Iterations 0
smoothSolver:  Solving for Uy, Initial residual = 2.95253e-08, Final residual = 2.95253e-08, No Iterations 0
DICPCG:  Solving for p, Initial residual = 1.26798e-06, Final residual = 2.15125e-07, No Iterations 1
time step continuity errors : sum local = 5.1887e-10, global = -1.05217e-20, cumulative = 3.02603e-18
DICPCG:  Solving for p, Initial residual = 2.88522e-07, Final residual = 2.88522e-07, No Iterations 0
time step continuity errors : sum local = 6.10516e-10, global = 1.32382e-19, cumulative = 3.15841e-18
ExecutionTime = 3.29 s  ClockTime = 11 s

End

