/*---------------------------------------------------------------------------*\
| =========                 |                                                 |
| \\      /  F ield         | OpenFOAM: The Open Source CFD Toolbox           |
|  \\    /   O peration     | Version:  v1606+                                |
|   \\  /    A nd           | Web:      www.OpenFOAM.com                      |
|    \\/     M anipulation  |                                                 |
\*---------------------------------------------------------------------------*/
Build  : v1606+
Exec   : interFoam
Date   : Oct 19 2016
Time   : 02:54:30
Host   : "79ba4d3dd43f"
PID    : 488
Case   : /openfoam/mixerVessel2D
nProcs : 1
sigFpe : Enabling floating point exception trapping (FOAM_SIGFPE).
fileModificationChecking : Monitoring run-time modified files using timeStampMaster
allowSystemOperations : Allowing user-supplied system call operations

// * * * * * * * * * * * * * * * * * * * * * * * * * * * * * * * * * * * * * //
Create time

Create mesh for time = 0


PIMPLE: Operating solver in PISO mode

Reading field p_rgh

Reading field U

Reading/calculating face flux field phi

Reading transportProperties

Selecting incompressible transport model Newtonian
Selecting incompressible transport model Newtonian
Selecting turbulence model type laminar

Reading g

Reading hRef
Calculating field g.h

Creating MRF zone list from MRFProperties
    creating MRF zone: MRF1
No finite volume options present

DICPCG:  Solving for pcorr, Initial residual = 0, Final residual = 0, No Iterations 0
time step continuity errors : sum local = 0, global = 0, cumulative = 0
Courant Number mean: 0 max: 0

Starting time loop

Courant Number mean: 0 max: 0
Interface Courant Number mean: 0 max: 0
deltaT = 0.00119048
Time = 0.00119048

PIMPLE: iteration 1
MULES: Solving for alpha.water
Phase-1 volume fraction = 0.25  Min(alpha.water) = 0  Max(alpha.water) = 1
MULES: Solving for alpha.water
Phase-1 volume fraction = 0.25  Min(alpha.water) = 0  Max(alpha.water) = 1
DICPCG:  Solving for p_rgh, Initial residual = 1, Final residual = 0.0486954, No Iterations 62
time step continuity errors : sum local = 0.000102407, global = -9.19136e-21, cumulative = -9.19136e-21
DICPCG:  Solving for p_rgh, Initial residual = 0.0523429, Final residual = 0.002374, No Iterations 34
time step continuity errors : sum local = 1.33323e-05, global = -1.55903e-19, cumulative = -1.65094e-19
DICPCG:  Solving for p_rgh, Initial residual = 0.00351233, Final residual = 8.82199e-08, No Iterations 93
time step continuity errors : sum local = 3.91299e-10, global = -1.0048e-20, cumulative = -1.75142e-19
ExecutionTime = 0.05 s  ClockTime = 0 s

Courant Number mean: 0.0335802 max: 0.344206
Interface Courant Number mean: 0 max: 0
deltaT = 0.00136054
Time = 0.00255102

PIMPLE: iteration 1
MULES: Solving for alpha.water
Phase-1 volume fraction = 0.25  Min(alpha.water) = 0  Max(alpha.water) = 1
MULES: Solving for alpha.water
Phase-1 volume fraction = 0.25  Min(alpha.water) = 0  Max(alpha.water) = 1
DICPCG:  Solving for p_rgh, Initial residual = 0.648053, Final residual = 0.0306806, No Iterations 60
time step continuity errors : sum local = 0.000143804, global = -4.17021e-20, cumulative = -2.16844e-19
DICPCG:  Solving for p_rgh, Initial residual = 0.0657758, Final residual = 0.00276074, No Iterations 29
time step continuity errors : sum local = 9.59019e-06, global = 1.61058e-20, cumulative = -2.00738e-19
DICPCG:  Solving for p_rgh, Initial residual = 0.00585958, Final residual = 8.90115e-08, No Iterations 96
time step continuity errors : sum local = 2.67594e-10, global = -7.68189e-20, cumulative = -2.77557e-19
ExecutionTime = 0.07 s  ClockTime = 0 s

Courant Number mean: 0.0385312 max: 0.414061
Interface Courant Number mean: 0.000732445 max: 0.401055
deltaT = 0.00151172
Time = 0.00406274

PIMPLE: iteration 1
MULES: Solving for alpha.water
Phase-1 volume fraction = 0.25  Min(alpha.water) = 0  Max(alpha.water) = 1
MULES: Solving for alpha.water
Phase-1 volume fraction = 0.25  Min(alpha.water) = 0  Max(alpha.water) = 1
DICPCG:  Solving for p_rgh, Initial residual = 0.355764, Final residual = 0.0175807, No Iterations 9
time step continuity errors : sum local = 5.35529e-05, global = -9.06787e-20, cumulative = -3.68236e-19
DICPCG:  Solving for p_rgh, Initial residual = 0.039089, Final residual = 0.00180842, No Iterations 25
time step continuity errors : sum local = 4.47667e-06, global = -7.85007e-21, cumulative = -3.76086e-19
DICPCG:  Solving for p_rgh, Initial residual = 0.00519935, Final residual = 6.72799e-08, No Iterations 94
time step continuity errors : sum local = 1.59593e-10, global = -2.07551e-20, cumulative = -3.96841e-19
ExecutionTime = 0.09 s  ClockTime = 0 s

Courant Number mean: 0.0425538 max: 0.462412
Interface Courant Number mean: 0.000799128 max: 0.432504
deltaT = 0.00163429
Time = 0.00569702

PIMPLE: iteration 1
MULES: Solving for alpha.water
Phase-1 volume fraction = 0.25  Min(alpha.water) = 0  Max(alpha.water) = 1
MULES: Solving for alpha.water
Phase-1 volume fraction = 0.25  Min(alpha.water) = 0  Max(alpha.water) = 1
DICPCG:  Solving for p_rgh, Initial residual = 0.193375, Final residual = 0.00895785, No Iterations 8
time step continuity errors : sum local = 2.27716e-05, global = 2.7972e-20, cumulative = -3.68869e-19
DICPCG:  Solving for p_rgh, Initial residual = 0.0264538, Final residual = 0.00107792, No Iterations 15
time step continuity errors : sum local = 2.68793e-06, global = 1.75948e-20, cumulative = -3.51274e-19
DICPCG:  Solving for p_rgh, Initial residual = 0.00461077, Final residual = 8.75412e-08, No Iterations 92
time step continuity errors : sum local = 1.95714e-10, global = 4.23943e-21, cumulative = -3.47035e-19
ExecutionTime = 0.11 s  ClockTime = 0 s

Courant Number mean: 0.0457546 max: 0.496851
Interface Courant Number mean: 0.00126157 max: 0.451521
deltaT = 0.00163429
Time = 0.00733131

PIMPLE: iteration 1
MULES: Solving for alpha.water
Phase-1 volume fraction = 0.25  Min(alpha.water) = 0  Max(alpha.water) = 1
MULES: Solving for alpha.water
Phase-1 volume fraction = 0.25  Min(alpha.water) = 0  Max(alpha.water) = 1
DICPCG:  Solving for p_rgh, Initial residual = 0.11981, Final residual = 0.0053838, No Iterations 2
time step continuity errors : sum local = 1.15232e-05, global = -2.07235e-21, cumulative = -3.49107e-19
DICPCG:  Solving for p_rgh, Initial residual = 0.0183625, Final residual = 0.000762583, No Iterations 19
time step continuity errors : sum local = 1.58185e-06, global = -2.65686e-20, cumulative = -3.75676e-19
DICPCG:  Solving for p_rgh, Initial residual = 0.00355774, Final residual = 9.73576e-08, No Iterations 91
time step continuity errors : sum local = 1.96962e-10, global = 2.97811e-20, cumulative = -3.45895e-19
ExecutionTime = 0.12 s  ClockTime = 0 s

Courant Number mean: 0.0455088 max: 0.492663
Interface Courant Number mean: 0.00146028 max: 0.347973
deltaT = 0.00165731
Time = 0.00898862

PIMPLE: iteration 1
MULES: Solving for alpha.water
Phase-1 volume fraction = 0.25  Min(alpha.water) = 0  Max(alpha.water) = 1
MULES: Solving for alpha.water
Phase-1 volume fraction = 0.25  Min(alpha.water) = 0  Max(alpha.water) = 1
DICPCG:  Solving for p_rgh, Initial residual = 0.0958023, Final residual = 0.00408787, No Iterations 2
time step continuity errors : sum local = 8.18332e-06, global = -7.11237e-20, cumulative = -4.17018e-19
DICPCG:  Solving for p_rgh, Initial residual = 0.0170064, Final residual = 0.000849889, No Iterations 22
time step continuity errors : sum local = 1.66998e-06, global = -1.98894e-20, cumulative = -4.36908e-19
DICPCG:  Solving for p_rgh, Initial residual = 0.00335166, Final residual = 9.97969e-08, No Iterations 93
time step continuity errors : sum local = 1.90205e-10, global = -1.29613e-19, cumulative = -5.66521e-19
ExecutionTime = 0.14 s  ClockTime = 0 s

Courant Number mean: 0.0459028 max: 0.494202
Interface Courant Number mean: 0.00137282 max: 0.354955
deltaT = 0.00165731
Time = 0.0106459

PIMPLE: iteration 1
MULES: Solving for alpha.water
Phase-1 volume fraction = 0.25  Min(alpha.water) = 0  Max(alpha.water) = 1
MULES: Solving for alpha.water
Phase-1 volume fraction = 0.25  Min(alpha.water) = 0  Max(alpha.water) = 1
DICPCG:  Solving for p_rgh, Initial residual = 0.0778332, Final residual = 0.00354129, No Iterations 2
time step continuity errors : sum local = 6.5866e-06, global = 7.0741e-20, cumulative = -4.9578e-19
DICPCG:  Solving for p_rgh, Initial residual = 0.015555, Final residual = 0.000731845, No Iterations 14
time step continuity errors : sum local = 1.42055e-06, global = 7.87752e-20, cumulative = -4.17005e-19
DICPCG:  Solving for p_rgh, Initial residual = 0.00288321, Final residual = 8.39591e-08, No Iterations 94
time step continuity errors : sum local = 1.50316e-10, global = -8.83401e-20, cumulative = -5.05345e-19
ExecutionTime = 0.16 s  ClockTime = 0 s

Courant Number mean: 0.0456899 max: 0.488191
Interface Courant Number mean: 0.00129102 max: 0.354922
deltaT = 0.00168168
Time = 0.0123276

PIMPLE: iteration 1
MULES: Solving for alpha.water
Phase-1 volume fraction = 0.25  Min(alpha.water) = 0  Max(alpha.water) = 1
MULES: Solving for alpha.water
Phase-1 volume fraction = 0.25  Min(alpha.water) = 0  Max(alpha.water) = 1
DICPCG:  Solving for p_rgh, Initial residual = 0.0667073, Final residual = 0.00310667, No Iterations 2
time step continuity errors : sum local = 5.55503e-06, global = 5.09567e-21, cumulative = -5.00249e-19
DICPCG:  Solving for p_rgh, Initial residual = 0.0149384, Final residual = 0.000712492, No Iterations 20
time step continuity errors : sum local = 1.30878e-06, global = -6.20549e-20, cumulative = -5.62304e-19
DICPCG:  Solving for p_rgh, Initial residual = 0.00286895, Final residual = 9.76299e-08, No Iterations 90
time step continuity errors : sum local = 1.6653e-10, global = 1.56062e-19, cumulative = -4.06242e-19
ExecutionTime = 0.17 s  ClockTime = 0 s

Courant Number mean: 0.0461701 max: 0.489545
Interface Courant Number mean: 0.00133061 max: 0.35918
deltaT = 0.00170716
Time = 0.0140348

PIMPLE: iteration 1
MULES: Solving for alpha.water
Phase-1 volume fraction = 0.25  Min(alpha.water) = 0  Max(alpha.water) = 1
MULES: Solving for alpha.water
Phase-1 volume fraction = 0.25  Min(alpha.water) = 0  Max(alpha.water) = 1
DICPCG:  Solving for p_rgh, Initial residual = 0.066558, Final residual = 0.00291551, No Iterations 2
time step continuity errors : sum local = 4.9728e-06, global = -9.74506e-20, cumulative = -5.03692e-19
DICPCG:  Solving for p_rgh, Initial residual = 0.0155407, Final residual = 0.000703077, No Iterations 20
time step continuity errors : sum local = 1.18304e-06, global = 8.31983e-20, cumulative = -4.20494e-19
DICPCG:  Solving for p_rgh, Initial residual = 0.00290124, Final residual = 7.26727e-08, No Iterations 93
time step continuity errors : sum local = 1.17751e-10, global = 6.37555e-20, cumulative = -3.56739e-19
ExecutionTime = 0.19 s  ClockTime = 0 s

Courant Number mean: 0.0467221 max: 0.491161
Interface Courant Number mean: 0.00171675 max: 0.362528
deltaT = 0.00173383
Time = 0.0157686

PIMPLE: iteration 1
MULES: Solving for alpha.water
Phase-1 volume fraction = 0.25  Min(alpha.water) = 0  Max(alpha.water) = 1
MULES: Solving for alpha.water
Phase-1 volume fraction = 0.25  Min(alpha.water) = 0  Max(alpha.water) = 1
DICPCG:  Solving for p_rgh, Initial residual = 0.0643721, Final residual = 0.00280397, No Iterations 2
time step continuity errors : sum local = 4.54179e-06, global = 7.99869e-20, cumulative = -2.76752e-19
DICPCG:  Solving for p_rgh, Initial residual = 0.0156263, Final residual = 0.000732361, No Iterations 11
time step continuity errors : sum local = 1.13735e-06, global = 1.4317e-20, cumulative = -2.62435e-19
DICPCG:  Solving for p_rgh, Initial residual = 0.00292361, Final residual = 9.81963e-08, No Iterations 92
time step continuity errors : sum local = 1.52335e-10, global = -2.15189e-20, cumulative = -2.83954e-19
ExecutionTime = 0.21 s  ClockTime = 0 s

Courant Number mean: 0.0473045 max: 0.492817
Interface Courant Number mean: 0.00154773 max: 0.334811
deltaT = 0.00173383
Time = 0.0175024

PIMPLE: iteration 1
MULES: Solving for alpha.water
Phase-1 volume fraction = 0.25  Min(alpha.water) = 0  Max(alpha.water) = 1
MULES: Solving for alpha.water
Phase-1 volume fraction = 0.25  Min(alpha.water) = 0  Max(alpha.water) = 1
DICPCG:  Solving for p_rgh, Initial residual = 0.0592022, Final residual = 0.00265871, No Iterations 3
time step continuity errors : sum local = 3.99914e-06, global = 9.76432e-20, cumulative = -1.86311e-19
DICPCG:  Solving for p_rgh, Initial residual = 0.0159979, Final residual = 0.000799014, No Iterations 9
time step continuity errors : sum local = 1.21008e-06, global = -2.69704e-20, cumulative = -2.13281e-19
DICPCG:  Solving for p_rgh, Initial residual = 0.00304626, Final residual = 9.36828e-08, No Iterations 93
time step continuity errors : sum local = 1.34088e-10, global = -4.45634e-20, cumulative = -2.57844e-19
ExecutionTime = 0.22 s  ClockTime = 1 s

Courant Number mean: 0.0471936 max: 0.486353
Interface Courant Number mean: 0.00157146 max: 0.328987
deltaT = 0.00176226
Time = 0.0192647

PIMPLE: iteration 1
MULES: Solving for alpha.water
Phase-1 volume fraction = 0.25  Min(alpha.water) = 0  Max(alpha.water) = 1
MULES: Solving for alpha.water
Phase-1 volume fraction = 0.25  Min(alpha.water) = 0  Max(alpha.water) = 1
DICPCG:  Solving for p_rgh, Initial residual = 0.0645612, Final residual = 0.00256382, No Iterations 3
time step continuity errors : sum local = 3.67898e-06, global = 1.01672e-19, cumulative = -1.56172e-19
DICPCG:  Solving for p_rgh, Initial residual = 0.0160799, Final residual = 0.00078192, No Iterations 13
time step continuity errors : sum local = 1.09382e-06, global = -7.41674e-20, cumulative = -2.3034e-19
DICPCG:  Solving for p_rgh, Initial residual = 0.00304208, Final residual = 9.77486e-08, No Iterations 93
time step continuity errors : sum local = 1.33518e-10, global = -1.04144e-19, cumulative = -3.34483e-19
ExecutionTime = 0.24 s  ClockTime = 1 s

Courant Number mean: 0.0478872 max: 0.487339
Interface Courant Number mean: 0.00149192 max: 0.335932
deltaT = 0.00179212
Time = 0.0210568

PIMPLE: iteration 1
MULES: Solving for alpha.water
Phase-1 volume fraction = 0.25  Min(alpha.water) = 0  Max(alpha.water) = 1
MULES: Solving for alpha.water
Phase-1 volume fraction = 0.25  Min(alpha.water) = 0  Max(alpha.water) = 1
DICPCG:  Solving for p_rgh, Initial residual = 0.0602903, Final residual = 0.00280467, No Iterations 2
time step continuity errors : sum local = 3.861e-06, global = 2.04646e-20, cumulative = -3.14019e-19
DICPCG:  Solving for p_rgh, Initial residual = 0.0160012, Final residual = 0.000685293, No Iterations 7
time step continuity errors : sum local = 9.18944e-07, global = -7.01111e-20, cumulative = -3.8413e-19
DICPCG:  Solving for p_rgh, Initial residual = 0.0029301, Final residual = 8.94308e-08, No Iterations 91
time step continuity errors : sum local = 1.18751e-10, global = 3.95439e-21, cumulative = -3.80175e-19
ExecutionTime = 0.26 s  ClockTime = 1 s

Courant Number mean: 0.0486218 max: 0.488055
Interface Courant Number mean: 0.00183997 max: 0.343786
deltaT = 0.00182356
Time = 0.0228804

PIMPLE: iteration 1
MULES: Solving for alpha.water
Phase-1 volume fraction = 0.25  Min(alpha.water) = 0  Max(alpha.water) = 1
MULES: Solving for alpha.water
Phase-1 volume fraction = 0.25  Min(alpha.water) = 0  Max(alpha.water) = 1
DICPCG:  Solving for p_rgh, Initial residual = 0.0578335, Final residual = 0.00205371, No Iterations 3
time step continuity errors : sum local = 2.75881e-06, global = -8.25086e-21, cumulative = -3.88426e-19
DICPCG:  Solving for p_rgh, Initial residual = 0.0156114, Final residual = 0.000773493, No Iterations 11
time step continuity errors : sum local = 1.00669e-06, global = 1.56383e-20, cumulative = -3.72788e-19
DICPCG:  Solving for p_rgh, Initial residual = 0.00299211, Final residual = 8.76616e-08, No Iterations 94
time step continuity errors : sum local = 1.14193e-10, global = -1.30951e-19, cumulative = -5.03739e-19
ExecutionTime = 0.27 s  ClockTime = 1 s

Courant Number mean: 0.0494029 max: 0.488198
Interface Courant Number mean: 0.00213975 max: 0.351172
deltaT = 0.00185672
Time = 0.0247371

PIMPLE: iteration 1
MULES: Solving for alpha.water
Phase-1 volume fraction = 0.25  Min(alpha.water) = 0  Max(alpha.water) = 1
MULES: Solving for alpha.water
Phase-1 volume fraction = 0.25  Min(alpha.water) = 0  Max(alpha.water) = 1
DICPCG:  Solving for p_rgh, Initial residual = 0.0551326, Final residual = 0.00252878, No Iterations 3
time step continuity errors : sum local = 3.33089e-06, global = 9.50163e-21, cumulative = -4.94238e-19
DICPCG:  Solving for p_rgh, Initial residual = 0.0158507, Final residual = 0.000699738, No Iterations 11
time step continuity errors : sum local = 9.31811e-07, global = 1.18764e-20, cumulative = -4.82361e-19
DICPCG:  Solving for p_rgh, Initial residual = 0.00296983, Final residual = 9.38224e-08, No Iterations 92
time step continuity errors : sum local = 1.19593e-10, global = -7.22948e-20, cumulative = -5.54656e-19
ExecutionTime = 0.29 s  ClockTime = 1 s

Courant Number mean: 0.0502545 max: 0.487566
Interface Courant Number mean: 0.00203877 max: 0.33666
deltaT = 0.00189175
Time = 0.0266288

PIMPLE: iteration 1
MULES: Solving for alpha.water
Phase-1 volume fraction = 0.25  Min(alpha.water) = 0  Max(alpha.water) = 1
MULES: Solving for alpha.water
Phase-1 volume fraction = 0.25  Min(alpha.water) = 0  Max(alpha.water) = 1
DICPCG:  Solving for p_rgh, Initial residual = 0.0546389, Final residual = 0.00255407, No Iterations 3
time step continuity errors : sum local = 3.32824e-06, global = -2.82016e-20, cumulative = -5.82858e-19
DICPCG:  Solving for p_rgh, Initial residual = 0.015767, Final residual = 0.000712803, No Iterations 8
time step continuity errors : sum local = 9.36004e-07, global = 6.56453e-20, cumulative = -5.17212e-19
DICPCG:  Solving for p_rgh, Initial residual = 0.00295832, Final residual = 9.95372e-08, No Iterations 92
time step continuity errors : sum local = 1.26927e-10, global = 9.6347e-20, cumulative = -4.20865e-19
ExecutionTime = 0.31 s  ClockTime = 1 s

Courant Number mean: 0.0511655 max: 0.486207
Interface Courant Number mean: 0.00184298 max: 0.344939
deltaT = 0.00192885
Time = 0.0285577

PIMPLE: iteration 1
MULES: Solving for alpha.water
Phase-1 volume fraction = 0.25  Min(alpha.water) = 0  Max(alpha.water) = 1
MULES: Solving for alpha.water
Phase-1 volume fraction = 0.25  Min(alpha.water) = 0  Max(alpha.water) = 1
DICPCG:  Solving for p_rgh, Initial residual = 0.0519518, Final residual = 0.0024938, No Iterations 3
time step continuity errors : sum local = 3.25014e-06, global = 3.82044e-20, cumulative = -3.82661e-19
DICPCG:  Solving for p_rgh, Initial residual = 0.0159621, Final residual = 0.000733933, No Iterations 15
time step continuity errors : sum local = 9.49348e-07, global = -3.02066e-20, cumulative = -4.12867e-19
DICPCG:  Solving for p_rgh, Initial residual = 0.00299412, Final residual = 9.06641e-08, No Iterations 94
time step continuity errors : sum local = 1.15761e-10, global = 5.98954e-21, cumulative = -4.06878e-19
ExecutionTime = 0.32 s  ClockTime = 1 s

Courant Number mean: 0.0521529 max: 0.484016
Interface Courant Number mean: 0.00194702 max: 0.348773
deltaT = 0.00196821
Time = 0.0305259

PIMPLE: iteration 1
MULES: Solving for alpha.water
Phase-1 volume fraction = 0.25  Min(alpha.water) = 0  Max(alpha.water) = 1
MULES: Solving for alpha.water
Phase-1 volume fraction = 0.25  Min(alpha.water) = 0  Max(alpha.water) = 1
DICPCG:  Solving for p_rgh, Initial residual = 0.0493168, Final residual = 0.00229275, No Iterations 4
time step continuity errors : sum local = 3.02146e-06, global = -6.69128e-20, cumulative = -4.73791e-19
DICPCG:  Solving for p_rgh, Initial residual = 0.0162663, Final residual = 0.000694925, No Iterations 15
time step continuity errors : sum local = 9.61685e-07, global = 1.47849e-19, cumulative = -3.25941e-19
DICPCG:  Solving for p_rgh, Initial residual = 0.00297841, Final residual = 9.79609e-08, No Iterations 91
time step continuity errors : sum local = 1.26375e-10, global = 3.78112e-21, cumulative = -3.2216e-19
ExecutionTime = 0.34 s  ClockTime = 1 s

Courant Number mean: 0.0532043 max: 0.481335
Interface Courant Number mean: 0.0022279 max: 0.353553
deltaT = 0.00201009
Time = 0.032536

PIMPLE: iteration 1
MULES: Solving for alpha.water
Phase-1 volume fraction = 0.25  Min(alpha.water) = 0  Max(alpha.water) = 1
MULES: Solving for alpha.water
Phase-1 volume fraction = 0.25  Min(alpha.water) = 0  Max(alpha.water) = 1
DICPCG:  Solving for p_rgh, Initial residual = 0.0430258, Final residual = 0.00211226, No Iterations 6
time step continuity errors : sum local = 2.85213e-06, global = -3.54392e-20, cumulative = -3.57599e-19
DICPCG:  Solving for p_rgh, Initial residual = 0.0165677, Final residual = 0.000789249, No Iterations 9
time step continuity errors : sum local = 1.02876e-06, global = 6.86427e-20, cumulative = -2.88957e-19
DICPCG:  Solving for p_rgh, Initial residual = 0.0030312, Final residual = 7.46955e-08, No Iterations 92
time step continuity errors : sum local = 9.73261e-11, global = 3.8677e-20, cumulative = -2.5028e-19
ExecutionTime = 0.36 s  ClockTime = 1 s

Courant Number mean: 0.054332 max: 0.478195
Interface Courant Number mean: 0.00245554 max: 0.355273
deltaT = 0.00210145
Time = 0.0346374

PIMPLE: iteration 1
MULES: Solving for alpha.water
Phase-1 volume fraction = 0.25  Min(alpha.water) = 0  Max(alpha.water) = 1
MULES: Solving for alpha.water
Phase-1 volume fraction = 0.25  Min(alpha.water) = 0  Max(alpha.water) = 1
DICPCG:  Solving for p_rgh, Initial residual = 0.047215, Final residual = 0.00211964, No Iterations 6
time step continuity errors : sum local = 2.9908e-06, global = -1.3091e-19, cumulative = -3.8119e-19
DICPCG:  Solving for p_rgh, Initial residual = 0.0172464, Final residual = 0.000725408, No Iterations 10
time step continuity errors : sum local = 9.90121e-07, global = -4.93045e-20, cumulative = -4.30494e-19
DICPCG:  Solving for p_rgh, Initial residual = 0.00313581, Final residual = 9.57185e-08, No Iterations 91
time step continuity errors : sum local = 1.30392e-10, global = -1.33851e-19, cumulative = -5.64345e-19
ExecutionTime = 0.37 s  ClockTime = 1 s

Courant Number mean: 0.0568157 max: 0.485358
Interface Courant Number mean: 0.00237574 max: 0.372512
deltaT = 0.00215149
Time = 0.0367889

PIMPLE: iteration 1
MULES: Solving for alpha.water
Phase-1 volume fraction = 0.25  Min(alpha.water) = 0  Max(alpha.water) = 1
MULES: Solving for alpha.water
Phase-1 volume fraction = 0.25  Min(alpha.water) = 0  Max(alpha.water) = 1
DICPCG:  Solving for p_rgh, Initial residual = 0.0497637, Final residual = 0.0024174, No Iterations 8
time step continuity errors : sum local = 3.39509e-06, global = -6.85363e-20, cumulative = -6.32881e-19
DICPCG:  Solving for p_rgh, Initial residual = 0.0178713, Final residual = 0.000742768, No Iterations 19
time step continuity errors : sum local = 1.07311e-06, global = 2.61509e-20, cumulative = -6.06731e-19
DICPCG:  Solving for p_rgh, Initial residual = 0.00328771, Final residual = 8.03566e-08, No Iterations 93
time step continuity errors : sum local = 1.09478e-10, global = -9.9826e-21, cumulative = -6.16713e-19
ExecutionTime = 0.39 s  ClockTime = 1 s

Courant Number mean: 0.0581854 max: 0.481787
Interface Courant Number mean: 0.00256955 max: 0.381041
deltaT = 0.00220528
Time = 0.0389942

PIMPLE: iteration 1
MULES: Solving for alpha.water
Phase-1 volume fraction = 0.25  Min(alpha.water) = 0  Max(alpha.water) = 1
MULES: Solving for alpha.water
Phase-1 volume fraction = 0.25  Min(alpha.water) = 0  Max(alpha.water) = 1
DICPCG:  Solving for p_rgh, Initial residual = 0.0483672, Final residual = 0.0023335, No Iterations 5
time step continuity errors : sum local = 3.35148e-06, global = -9.76913e-21, cumulative = -6.26482e-19
DICPCG:  Solving for p_rgh, Initial residual = 0.0173065, Final residual = 0.000719067, No Iterations 14
time step continuity errors : sum local = 1.01427e-06, global = -4.02107e-20, cumulative = -6.66693e-19
DICPCG:  Solving for p_rgh, Initial residual = 0.00318043, Final residual = 7.16796e-08, No Iterations 95
time step continuity errors : sum local = 9.97276e-11, global = 1.30351e-19, cumulative = -5.36342e-19
ExecutionTime = 0.41 s  ClockTime = 1 s

Courant Number mean: 0.0596777 max: 0.478384
Interface Courant Number mean: 0.00296343 max: 0.423403
deltaT = 0.00226331
Time = 0.0412575

PIMPLE: iteration 1
MULES: Solving for alpha.water
Phase-1 volume fraction = 0.25  Min(alpha.water) = 0  Max(alpha.water) = 1
MULES: Solving for alpha.water
Phase-1 volume fraction = 0.25  Min(alpha.water) = 0  Max(alpha.water) = 1
DICPCG:  Solving for p_rgh, Initial residual = 0.0494874, Final residual = 0.00215072, No Iterations 6
time step continuity errors : sum local = 3.15459e-06, global = 1.0548e-19, cumulative = -4.30861e-19
DICPCG:  Solving for p_rgh, Initial residual = 0.0171753, Final residual = 0.000756383, No Iterations 14
time step continuity errors : sum local = 1.07274e-06, global = 1.64959e-19, cumulative = -2.65902e-19
DICPCG:  Solving for p_rgh, Initial residual = 0.00316576, Final residual = 9.55553e-08, No Iterations 94
time step continuity errors : sum local = 1.351e-10, global = 5.42879e-20, cumulative = -2.11615e-19
ExecutionTime = 0.42 s  ClockTime = 1 s

Courant Number mean: 0.0612986 max: 0.475307
Interface Courant Number mean: 0.00338283 max: 0.428533
deltaT = 0.00232618
Time = 0.0435837

PIMPLE: iteration 1
MULES: Solving for alpha.water
Phase-1 volume fraction = 0.25  Min(alpha.water) = 0  Max(alpha.water) = 1
MULES: Solving for alpha.water
Phase-1 volume fraction = 0.25  Min(alpha.water) = 0  Max(alpha.water) = 1
DICPCG:  Solving for p_rgh, Initial residual = 0.0544879, Final residual = 0.0025036, No Iterations 6
time step continuity errors : sum local = 3.73723e-06, global = 4.81749e-20, cumulative = -1.6344e-19
DICPCG:  Solving for p_rgh, Initial residual = 0.0182211, Final residual = 0.00083137, No Iterations 24
time step continuity errors : sum local = 1.28426e-06, global = -1.10575e-19, cumulative = -2.74015e-19
DICPCG:  Solving for p_rgh, Initial residual = 0.00348777, Final residual = 8.26284e-08, No Iterations 91
time step continuity errors : sum local = 1.18184e-10, global = 1.75229e-20, cumulative = -2.56492e-19
ExecutionTime = 0.44 s  ClockTime = 1 s

Courant Number mean: 0.0630676 max: 0.473507
Interface Courant Number mean: 0.00347758 max: 0.432741
deltaT = 0.0023946
Time = 0.0459783

PIMPLE: iteration 1
MULES: Solving for alpha.water
Phase-1 volume fraction = 0.25  Min(alpha.water) = 0  Max(alpha.water) = 1
MULES: Solving for alpha.water
Phase-1 volume fraction = 0.25  Min(alpha.water) = 0  Max(alpha.water) = 1
DICPCG:  Solving for p_rgh, Initial residual = 0.0485977, Final residual = 0.00231126, No Iterations 6
time step continuity errors : sum local = 3.50487e-06, global = -1.39359e-20, cumulative = -2.70428e-19
DICPCG:  Solving for p_rgh, Initial residual = 0.0184572, Final residual = 0.000712946, No Iterations 14
time step continuity errors : sum local = 1.05015e-06, global = -1.62773e-20, cumulative = -2.86705e-19
DICPCG:  Solving for p_rgh, Initial residual = 0.00339374, Final residual = 9.82285e-08, No Iterations 94
time step continuity errors : sum local = 1.43878e-10, global = -7.44912e-20, cumulative = -3.61196e-19
ExecutionTime = 0.46 s  ClockTime = 1 s

Courant Number mean: 0.0649976 max: 0.47304
Interface Courant Number mean: 0.00359985 max: 0.436352
deltaT = 0.00246943
Time = 0.0484477

PIMPLE: iteration 1
MULES: Solving for alpha.water
Phase-1 volume fraction = 0.25  Min(alpha.water) = 0  Max(alpha.water) = 1
MULES: Solving for alpha.water
Phase-1 volume fraction = 0.25  Min(alpha.water) = 0  Max(alpha.water) = 1
DICPCG:  Solving for p_rgh, Initial residual = 0.0440583, Final residual = 0.0020886, No Iterations 6
time step continuity errors : sum local = 3.28347e-06, global = 3.39193e-20, cumulative = -3.27277e-19
DICPCG:  Solving for p_rgh, Initial residual = 0.0186265, Final residual = 0.000720626, No Iterations 10
time step continuity errors : sum local = 1.11009e-06, global = -8.70941e-20, cumulative = -4.14371e-19
DICPCG:  Solving for p_rgh, Initial residual = 0.00350953, Final residual = 9.24095e-08, No Iterations 90
time step continuity errors : sum local = 1.40141e-10, global = 1.26761e-20, cumulative = -4.01695e-19
ExecutionTime = 0.48 s  ClockTime = 1 s

Courant Number mean: 0.067121 max: 0.474255
Interface Courant Number mean: 0.0038802 max: 0.439345
deltaT = 0.00255174
Time = 0.0509995

PIMPLE: iteration 1
MULES: Solving for alpha.water
Phase-1 volume fraction = 0.25  Min(alpha.water) = 0  Max(alpha.water) = 1
MULES: Solving for alpha.water
Phase-1 volume fraction = 0.25  Min(alpha.water) = 0  Max(alpha.water) = 1
DICPCG:  Solving for p_rgh, Initial residual = 0.0516661, Final residual = 0.00220154, No Iterations 6
time step continuity errors : sum local = 3.55312e-06, global = -1.15858e-20, cumulative = -4.13281e-19
DICPCG:  Solving for p_rgh, Initial residual = 0.0188287, Final residual = 0.000804151, No Iterations 10
time step continuity errors : sum local = 1.25686e-06, global = 1.3421e-19, cumulative = -2.79071e-19
DICPCG:  Solving for p_rgh, Initial residual = 0.00366764, Final residual = 7.98106e-08, No Iterations 93
time step continuity errors : sum local = 1.24166e-10, global = 1.62562e-19, cumulative = -1.1651e-19
ExecutionTime = 0.49 s  ClockTime = 1 s

Courant Number mean: 0.069478 max: 0.478755
Interface Courant Number mean: 0.00423219 max: 0.448568
deltaT = 0.00264288
Time = 0.0536423

PIMPLE: iteration 1
MULES: Solving for alpha.water
Phase-1 volume fraction = 0.25  Min(alpha.water) = 0  Max(alpha.water) = 1
MULES: Solving for alpha.water
Phase-1 volume fraction = 0.25  Min(alpha.water) = 0  Max(alpha.water) = 1
DICPCG:  Solving for p_rgh, Initial residual = 0.0564259, Final residual = 0.00258742, No Iterations 5
time step continuity errors : sum local = 4.28381e-06, global = 7.98971e-20, cumulative = -3.66125e-20
DICPCG:  Solving for p_rgh, Initial residual = 0.019007, Final residual = 0.00091638, No Iterations 10
time step continuity errors : sum local = 1.49093e-06, global = -1.23173e-19, cumulative = -1.59786e-19
DICPCG:  Solving for p_rgh, Initial residual = 0.00380175, Final residual = 9.65134e-08, No Iterations 90
time step continuity errors : sum local = 1.55814e-10, global = 2.47264e-20, cumulative = -1.35059e-19
ExecutionTime = 0.51 s  ClockTime = 1 s

Courant Number mean: 0.0721044 max: 0.484804
Interface Courant Number mean: 0.00450302 max: 0.466079
deltaT = 0.00264288
Time = 0.0562852

PIMPLE: iteration 1
MULES: Solving for alpha.water
Phase-1 volume fraction = 0.25  Min(alpha.water) = 0  Max(alpha.water) = 1
MULES: Solving for alpha.water
Phase-1 volume fraction = 0.25  Min(alpha.water) = 0  Max(alpha.water) = 1
DICPCG:  Solving for p_rgh, Initial residual = 0.0495734, Final residual = 0.00221219, No Iterations 7
time step continuity errors : sum local = 3.65363e-06, global = 2.48302e-19, cumulative = 1.13242e-19
DICPCG:  Solving for p_rgh, Initial residual = 0.0187031, Final residual = 0.000695308, No Iterations 10
time step continuity errors : sum local = 1.13322e-06, global = -1.08325e-19, cumulative = 4.91743e-21
DICPCG:  Solving for p_rgh, Initial residual = 0.00344283, Final residual = 8.74671e-08, No Iterations 91
time step continuity errors : sum local = 1.40112e-10, global = -3.00466e-20, cumulative = -2.51292e-20
ExecutionTime = 0.53 s  ClockTime = 1 s

Courant Number mean: 0.0722456 max: 0.478345
Interface Courant Number mean: 0.0047229 max: 0.466802
deltaT = 0.00274859
Time = 0.0590338

PIMPLE: iteration 1
MULES: Solving for alpha.water
Phase-1 volume fraction = 0.25  Min(alpha.water) = 0  Max(alpha.water) = 1
MULES: Solving for alpha.water
Phase-1 volume fraction = 0.25  Min(alpha.water) = 0  Max(alpha.water) = 1
DICPCG:  Solving for p_rgh, Initial residual = 0.048465, Final residual = 0.00208681, No Iterations 7
time step continuity errors : sum local = 3.62612e-06, global = -1.13876e-19, cumulative = -1.39005e-19
DICPCG:  Solving for p_rgh, Initial residual = 0.0191403, Final residual = 0.000921804, No Iterations 9
time step continuity errors : sum local = 1.54816e-06, global = 5.95388e-20, cumulative = -7.94665e-20
DICPCG:  Solving for p_rgh, Initial residual = 0.00371391, Final residual = 9.12574e-08, No Iterations 91
time step continuity errors : sum local = 1.53251e-10, global = 4.82389e-20, cumulative = -3.12276e-20
ExecutionTime = 0.54 s  ClockTime = 1 s

Courant Number mean: 0.0752912 max: 0.497597
Interface Courant Number mean: 0.00491726 max: 0.485374
deltaT = 0.00274859
Time = 0.0617824

PIMPLE: iteration 1
MULES: Solving for alpha.water
Phase-1 volume fraction = 0.25  Min(alpha.water) = 0  Max(alpha.water) = 1
MULES: Solving for alpha.water
Phase-1 volume fraction = 0.25  Min(alpha.water) = 0  Max(alpha.water) = 1
DICPCG:  Solving for p_rgh, Initial residual = 0.050108, Final residual = 0.00202593, No Iterations 7
time step continuity errors : sum local = 3.48437e-06, global = -5.27248e-20, cumulative = -8.39523e-20
DICPCG:  Solving for p_rgh, Initial residual = 0.0185997, Final residual = 0.000880832, No Iterations 9
time step continuity errors : sum local = 1.47348e-06, global = 5.26758e-20, cumulative = -3.12765e-20
DICPCG:  Solving for p_rgh, Initial residual = 0.00351823, Final residual = 9.44379e-08, No Iterations 93
time step continuity errors : sum local = 1.57625e-10, global = -1.41062e-19, cumulative = -1.72338e-19
ExecutionTime = 0.56 s  ClockTime = 1 s

Courant Number mean: 0.0754666 max: 0.496351
Interface Courant Number mean: 0.0049518 max: 0.484817
deltaT = 0.00274859
Time = 0.064531

PIMPLE: iteration 1
MULES: Solving for alpha.water
Phase-1 volume fraction = 0.25  Min(alpha.water) = 0  Max(alpha.water) = 1
MULES: Solving for alpha.water
Phase-1 volume fraction = 0.25  Min(alpha.water) = 0  Max(alpha.water) = 1
DICPCG:  Solving for p_rgh, Initial residual = 0.0470664, Final residual = 0.00206241, No Iterations 8
time step continuity errors : sum local = 3.52982e-06, global = 5.81339e-20, cumulative = -1.14204e-19
DICPCG:  Solving for p_rgh, Initial residual = 0.0184818, Final residual = 0.000878369, No Iterations 11
time step continuity errors : sum local = 1.46168e-06, global = -2.43632e-20, cumulative = -1.38568e-19
DICPCG:  Solving for p_rgh, Initial residual = 0.00326987, Final residual = 8.3479e-08, No Iterations 91
time step continuity errors : sum local = 1.38283e-10, global = 5.90112e-20, cumulative = -7.95563e-20
ExecutionTime = 0.58 s  ClockTime = 1 s

Courant Number mean: 0.0756424 max: 0.497804
Interface Courant Number mean: 0.00521122 max: 0.483713
deltaT = 0.00274859
Time = 0.0672796

PIMPLE: iteration 1
MULES: Solving for alpha.water
Phase-1 volume fraction = 0.25  Min(alpha.water) = 0  Max(alpha.water) = 1
MULES: Solving for alpha.water
Phase-1 volume fraction = 0.25  Min(alpha.water) = 0  Max(alpha.water) = 1
DICPCG:  Solving for p_rgh, Initial residual = 0.0508634, Final residual = 0.00213197, No Iterations 7
time step continuity errors : sum local = 3.62069e-06, global = -6.14605e-20, cumulative = -1.41017e-19
DICPCG:  Solving for p_rgh, Initial residual = 0.0175869, Final residual = 0.000670185, No Iterations 10
time step continuity errors : sum local = 1.12972e-06, global = -1.61337e-19, cumulative = -3.02354e-19
DICPCG:  Solving for p_rgh, Initial residual = 0.00310409, Final residual = 8.71735e-08, No Iterations 93
time step continuity errors : sum local = 1.42442e-10, global = -6.05681e-20, cumulative = -3.62922e-19
ExecutionTime = 0.59 s  ClockTime = 1 s

Courant Number mean: 0.0758264 max: 0.498462
Interface Courant Number mean: 0.00531883 max: 0.483339
deltaT = 0.00274859
Time = 0.0700282

PIMPLE: iteration 1
MULES: Solving for alpha.water
Phase-1 volume fraction = 0.25  Min(alpha.water) = 0  Max(alpha.water) = 1
MULES: Solving for alpha.water
Phase-1 volume fraction = 0.25  Min(alpha.water) = 0  Max(alpha.water) = 1
DICPCG:  Solving for p_rgh, Initial residual = 0.0469256, Final residual = 0.00226257, No Iterations 7
time step continuity errors : sum local = 3.79909e-06, global = -3.87835e-20, cumulative = -4.01706e-19
DICPCG:  Solving for p_rgh, Initial residual = 0.0172014, Final residual = 0.000668469, No Iterations 10
time step continuity errors : sum local = 1.11674e-06, global = -2.66519e-20, cumulative = -4.28357e-19
DICPCG:  Solving for p_rgh, Initial residual = 0.00300208, Final residual = 8.7855e-08, No Iterations 93
time step continuity errors : sum local = 1.42095e-10, global = -2.79593e-20, cumulative = -4.56317e-19
ExecutionTime = 0.61 s  ClockTime = 1 s

Courant Number mean: 0.076013 max: 0.49808
Interface Courant Number mean: 0.00537028 max: 0.485235
deltaT = 0.00274859
Time = 0.0727768

PIMPLE: iteration 1
MULES: Solving for alpha.water
Phase-1 volume fraction = 0.25  Min(alpha.water) = 0  Max(alpha.water) = 1
MULES: Solving for alpha.water
Phase-1 volume fraction = 0.25  Min(alpha.water) = 0  Max(alpha.water) = 1
DICPCG:  Solving for p_rgh, Initial residual = 0.0537221, Final residual = 0.00261373, No Iterations 6
time step continuity errors : sum local = 4.2538e-06, global = -1.31608e-19, cumulative = -5.87925e-19
DICPCG:  Solving for p_rgh, Initial residual = 0.0169143, Final residual = 0.000761973, No Iterations 14
time step continuity errors : sum local = 1.21717e-06, global = 7.28841e-20, cumulative = -5.15041e-19
DICPCG:  Solving for p_rgh, Initial residual = 0.00305148, Final residual = 6.93078e-08, No Iterations 95
time step continuity errors : sum local = 1.0961e-10, global = -8.75203e-20, cumulative = -6.02561e-19
ExecutionTime = 0.63 s  ClockTime = 1 s

Courant Number mean: 0.0762241 max: 0.496563
Interface Courant Number mean: 0.00549921 max: 0.486782
deltaT = 0.00274859
Time = 0.0755254

PIMPLE: iteration 1
MULES: Solving for alpha.water
Phase-1 volume fraction = 0.25  Min(alpha.water) = 0  Max(alpha.water) = 1
MULES: Solving for alpha.water
Phase-1 volume fraction = 0.25  Min(alpha.water) = 0  Max(alpha.water) = 1
DICPCG:  Solving for p_rgh, Initial residual = 0.0566451, Final residual = 0.00250851, No Iterations 5
time step continuity errors : sum local = 4.00616e-06, global = -2.22113e-20, cumulative = -6.24773e-19
DICPCG:  Solving for p_rgh, Initial residual = 0.0161279, Final residual = 0.000661452, No Iterations 10
time step continuity errors : sum local = 1.03998e-06, global = -1.70637e-19, cumulative = -7.9541e-19
DICPCG:  Solving for p_rgh, Initial residual = 0.00285995, Final residual = 8.25363e-08, No Iterations 91
time step continuity errors : sum local = 1.30789e-10, global = 6.36569e-20, cumulative = -7.31753e-19
ExecutionTime = 0.64 s  ClockTime = 1 s

Courant Number mean: 0.0764377 max: 0.493911
Interface Courant Number mean: 0.00570285 max: 0.487997
deltaT = 0.00274859
Time = 0.0782739

PIMPLE: iteration 1
MULES: Solving for alpha.water
Phase-1 volume fraction = 0.25  Min(alpha.water) = 0  Max(alpha.water) = 1
MULES: Solving for alpha.water
Phase-1 volume fraction = 0.25  Min(alpha.water) = 0  Max(alpha.water) = 1
DICPCG:  Solving for p_rgh, Initial residual = 0.0531266, Final residual = 0.00265126, No Iterations 7
time step continuity errors : sum local = 4.22026e-06, global = 5.70362e-20, cumulative = -6.74716e-19
DICPCG:  Solving for p_rgh, Initial residual = 0.0162384, Final residual = 0.000774366, No Iterations 10
time step continuity errors : sum local = 1.27807e-06, global = 1.40793e-19, cumulative = -5.33923e-19
DICPCG:  Solving for p_rgh, Initial residual = 0.00290221, Final residual = 7.30146e-08, No Iterations 91
time step continuity errors : sum local = 1.15162e-10, global = 5.68428e-20, cumulative = -4.77081e-19
ExecutionTime = 0.66 s  ClockTime = 1 s

Courant Number mean: 0.076641 max: 0.496462
Interface Courant Number mean: 0.00613776 max: 0.488575
deltaT = 0.00274859
Time = 0.0810225

PIMPLE: iteration 1
MULES: Solving for alpha.water
Phase-1 volume fraction = 0.25  Min(alpha.water) = 0  Max(alpha.water) = 1
MULES: Solving for alpha.water
Phase-1 volume fraction = 0.25  Min(alpha.water) = 0  Max(alpha.water) = 1
DICPCG:  Solving for p_rgh, Initial residual = 0.0454666, Final residual = 0.00197137, No Iterations 7
time step continuity errors : sum local = 3.21758e-06, global = 2.20755e-20, cumulative = -4.55005e-19
DICPCG:  Solving for p_rgh, Initial residual = 0.0159483, Final residual = 0.000757824, No Iterations 10
time step continuity errors : sum local = 1.23186e-06, global = -1.80295e-19, cumulative = -6.353e-19
DICPCG:  Solving for p_rgh, Initial residual = 0.00283739, Final residual = 9.80633e-08, No Iterations 93
time step continuity errors : sum local = 1.54373e-10, global = 1.24843e-19, cumulative = -5.10457e-19
ExecutionTime = 0.68 s  ClockTime = 1 s

Courant Number mean: 0.0768482 max: 0.498421
Interface Courant Number mean: 0.00606234 max: 0.488536
deltaT = 0.00274859
Time = 0.0837711

PIMPLE: iteration 1
MULES: Solving for alpha.water
Phase-1 volume fraction = 0.25  Min(alpha.water) = 0  Max(alpha.water) = 1
MULES: Solving for alpha.water
Phase-1 volume fraction = 0.25  Min(alpha.water) = 0  Max(alpha.water) = 1
DICPCG:  Solving for p_rgh, Initial residual = 0.043914, Final residual = 0.0017833, No Iterations 7
time step continuity errors : sum local = 2.89884e-06, global = -3.66523e-20, cumulative = -5.47109e-19
DICPCG:  Solving for p_rgh, Initial residual = 0.0155729, Final residual = 0.000573327, No Iterations 10
time step continuity errors : sum local = 9.30957e-07, global = -6.22261e-20, cumulative = -6.09335e-19
DICPCG:  Solving for p_rgh, Initial residual = 0.00268406, Final residual = 7.47566e-08, No Iterations 94
time step continuity errors : sum local = 1.17669e-10, global = -5.2837e-20, cumulative = -6.62172e-19
ExecutionTime = 0.69 s  ClockTime = 1 s

Courant Number mean: 0.0770693 max: 0.499456
Interface Courant Number mean: 0.00610524 max: 0.487828
deltaT = 0.00274859
Time = 0.0865197

PIMPLE: iteration 1
MULES: Solving for alpha.water
Phase-1 volume fraction = 0.25  Min(alpha.water) = 0  Max(alpha.water) = 1
MULES: Solving for alpha.water
Phase-1 volume fraction = 0.25  Min(alpha.water) = 0  Max(alpha.water) = 1
DICPCG:  Solving for p_rgh, Initial residual = 0.0469235, Final residual = 0.00188573, No Iterations 7
time step continuity errors : sum local = 3.03917e-06, global = -1.53105e-19, cumulative = -8.15277e-19
DICPCG:  Solving for p_rgh, Initial residual = 0.0154587, Final residual = 0.000591211, No Iterations 10
time step continuity errors : sum local = 9.33151e-07, global = 1.27681e-19, cumulative = -6.87596e-19
DICPCG:  Solving for p_rgh, Initial residual = 0.00262632, Final residual = 7.89341e-08, No Iterations 90
time step continuity errors : sum local = 1.23169e-10, global = -4.49955e-20, cumulative = -7.32591e-19
ExecutionTime = 0.71 s  ClockTime = 1 s

Courant Number mean: 0.077287 max: 0.499561
Interface Courant Number mean: 0.0065614 max: 0.487075
deltaT = 0.00274859
Time = 0.0892683

PIMPLE: iteration 1
MULES: Solving for alpha.water
Phase-1 volume fraction = 0.25  Min(alpha.water) = 0  Max(alpha.water) = 1
MULES: Solving for alpha.water
Phase-1 volume fraction = 0.25  Min(alpha.water) = 0  Max(alpha.water) = 1
DICPCG:  Solving for p_rgh, Initial residual = 0.0513055, Final residual = 0.00223372, No Iterations 7
time step continuity errors : sum local = 3.52355e-06, global = 7.3299e-20, cumulative = -6.59292e-19
DICPCG:  Solving for p_rgh, Initial residual = 0.0152084, Final residual = 0.000605723, No Iterations 10
time step continuity errors : sum local = 9.87326e-07, global = -6.41953e-20, cumulative = -7.23488e-19
DICPCG:  Solving for p_rgh, Initial residual = 0.0026042, Final residual = 9.56783e-08, No Iterations 89
time step continuity errors : sum local = 1.48102e-10, global = 1.14106e-19, cumulative = -6.09382e-19
ExecutionTime = 0.73 s  ClockTime = 1 s

Courant Number mean: 0.0775026 max: 0.498751
Interface Courant Number mean: 0.00662957 max: 0.489525
deltaT = 0.00274859
Time = 0.0920169

PIMPLE: iteration 1
MULES: Solving for alpha.water
Phase-1 volume fraction = 0.25  Min(alpha.water) = 0  Max(alpha.water) = 1
MULES: Solving for alpha.water
Phase-1 volume fraction = 0.25  Min(alpha.water) = 0  Max(alpha.water) = 1
DICPCG:  Solving for p_rgh, Initial residual = 0.0531495, Final residual = 0.00219962, No Iterations 7
time step continuity errors : sum local = 3.45865e-06, global = -4.7625e-20, cumulative = -6.57007e-19
DICPCG:  Solving for p_rgh, Initial residual = 0.0149007, Final residual = 0.000542955, No Iterations 10
time step continuity errors : sum local = 8.9428e-07, global = -4.72686e-20, cumulative = -7.04275e-19
DICPCG:  Solving for p_rgh, Initial residual = 0.00256062, Final residual = 8.44415e-08, No Iterations 93
time step continuity errors : sum local = 1.30963e-10, global = 2.66981e-20, cumulative = -6.77577e-19
ExecutionTime = 0.75 s  ClockTime = 1 s

Courant Number mean: 0.0777212 max: 0.49698
Interface Courant Number mean: 0.00657109 max: 0.491341
deltaT = 0.00274859
Time = 0.0947655

PIMPLE: iteration 1
MULES: Solving for alpha.water
Phase-1 volume fraction = 0.25  Min(alpha.water) = 0  Max(alpha.water) = 1
MULES: Solving for alpha.water
Phase-1 volume fraction = 0.25  Min(alpha.water) = 0  Max(alpha.water) = 1
DICPCG:  Solving for p_rgh, Initial residual = 0.0454504, Final residual = 0.00177363, No Iterations 7
time step continuity errors : sum local = 2.83758e-06, global = -2.78411e-20, cumulative = -7.05418e-19
DICPCG:  Solving for p_rgh, Initial residual = 0.0146503, Final residual = 0.000548247, No Iterations 10
time step continuity errors : sum local = 8.75124e-07, global = -1.98229e-21, cumulative = -7.07401e-19
DICPCG:  Solving for p_rgh, Initial residual = 0.00247055, Final residual = 9.83852e-08, No Iterations 93
time step continuity errors : sum local = 1.51538e-10, global = 2.83351e-20, cumulative = -6.79066e-19
ExecutionTime = 0.76 s  ClockTime = 1 s

Courant Number mean: 0.0779375 max: 0.494321
Interface Courant Number mean: 0.006507 max: 0.492667
deltaT = 0.00274859
Time = 0.0975141

PIMPLE: iteration 1
MULES: Solving for alpha.water
Phase-1 volume fraction = 0.25  Min(alpha.water) = 0  Max(alpha.water) = 1
MULES: Solving for alpha.water
Phase-1 volume fraction = 0.25  Min(alpha.water) = 2.00966e-133  Max(alpha.water) = 1
DICPCG:  Solving for p_rgh, Initial residual = 0.0496251, Final residual = 0.00222054, No Iterations 6
time step continuity errors : sum local = 3.50585e-06, global = 2.99095e-20, cumulative = -6.49156e-19
DICPCG:  Solving for p_rgh, Initial residual = 0.0140601, Final residual = 0.000587348, No Iterations 10
time step continuity errors : sum local = 9.3824e-07, global = 1.50255e-19, cumulative = -4.98901e-19
DICPCG:  Solving for p_rgh, Initial residual = 0.00240885, Final residual = 9.7567e-08, No Iterations 93
time step continuity errors : sum local = 1.51746e-10, global = -5.03536e-20, cumulative = -5.49254e-19
ExecutionTime = 0.78 s  ClockTime = 1 s

Courant Number mean: 0.0781631 max: 0.495285
Interface Courant Number mean: 0.00664891 max: 0.493264
deltaT = 0.00274859
Time = 0.100263

PIMPLE: iteration 1
MULES: Solving for alpha.water
Phase-1 volume fraction = 0.25  Min(alpha.water) = 9.81577e-132  Max(alpha.water) = 1
MULES: Solving for alpha.water
Phase-1 volume fraction = 0.25  Min(alpha.water) = 3.27579e-130  Max(alpha.water) = 1
DICPCG:  Solving for p_rgh, Initial residual = 0.0484705, Final residual = 0.00187794, No Iterations 7
time step continuity errors : sum local = 3.00951e-06, global = -1.14962e-19, cumulative = -6.64217e-19
DICPCG:  Solving for p_rgh, Initial residual = 0.0135359, Final residual = 0.000630904, No Iterations 10
time step continuity errors : sum local = 1.02692e-06, global = 1.06251e-19, cumulative = -5.57966e-19
DICPCG:  Solving for p_rgh, Initial residual = 0.00238119, Final residual = 8.22155e-08, No Iterations 91
time step continuity errors : sum local = 1.31637e-10, global = 9.12857e-20, cumulative = -4.6668e-19
ExecutionTime = 0.8 s  ClockTime = 1 s

Courant Number mean: 0.0783962 max: 0.496869
Interface Courant Number mean: 0.0068965 max: 0.492834
deltaT = 0.00274859
Time = 0.103011

PIMPLE: iteration 1
MULES: Solving for alpha.water
Phase-1 volume fraction = 0.25  Min(alpha.water) = 8.06777e-129  Max(alpha.water) = 1
MULES: Solving for alpha.water
Phase-1 volume fraction = 0.25  Min(alpha.water) = 1.62187e-127  Max(alpha.water) = 1
DICPCG:  Solving for p_rgh, Initial residual = 0.0472862, Final residual = 0.00208167, No Iterations 7
time step continuity errors : sum local = 3.34899e-06, global = 4.71403e-20, cumulative = -4.1954e-19
DICPCG:  Solving for p_rgh, Initial residual = 0.0132975, Final residual = 0.000555443, No Iterations 10
time step continuity errors : sum local = 9.17289e-07, global = -1.27755e-19, cumulative = -5.47295e-19
DICPCG:  Solving for p_rgh, Initial residual = 0.00228618, Final residual = 9.15928e-08, No Iterations 90
time step continuity errors : sum local = 1.45571e-10, global = -1.22495e-21, cumulative = -5.4852e-19
ExecutionTime = 0.81 s  ClockTime = 1 s

Courant Number mean: 0.0786246 max: 0.497601
Interface Courant Number mean: 0.00676111 max: 0.491026
deltaT = 0.00274859
Time = 0.10576

PIMPLE: iteration 1
MULES: Solving for alpha.water
Phase-1 volume fraction = 0.25  Min(alpha.water) = 2.68751e-126  Max(alpha.water) = 1
MULES: Solving for alpha.water
Phase-1 volume fraction = 0.25  Min(alpha.water) = 3.88099e-125  Max(alpha.water) = 1
DICPCG:  Solving for p_rgh, Initial residual = 0.0457293, Final residual = 0.00219365, No Iterations 5
time step continuity errors : sum local = 3.50446e-06, global = -6.8369e-20, cumulative = -6.16889e-19
DICPCG:  Solving for p_rgh, Initial residual = 0.0128494, Final residual = 0.000595797, No Iterations 10
time step continuity errors : sum local = 9.41078e-07, global = 1.45746e-19, cumulative = -4.71143e-19
DICPCG:  Solving for p_rgh, Initial residual = 0.00221581, Final residual = 8.48055e-08, No Iterations 92
time step continuity errors : sum local = 1.33485e-10, global = 2.30892e-20, cumulative = -4.48054e-19
ExecutionTime = 0.83 s  ClockTime = 1 s

Courant Number mean: 0.0788468 max: 0.497524
Interface Courant Number mean: 0.00692877 max: 0.488396
deltaT = 0.00274859
Time = 0.108508

PIMPLE: iteration 1
MULES: Solving for alpha.water
Phase-1 volume fraction = 0.25  Min(alpha.water) = 4.86306e-124  Max(alpha.water) = 1
MULES: Solving for alpha.water
Phase-1 volume fraction = 0.25  Min(alpha.water) = 5.4912e-123  Max(alpha.water) = 1
DICPCG:  Solving for p_rgh, Initial residual = 0.0435967, Final residual = 0.00209285, No Iterations 6
time step continuity errors : sum local = 3.35132e-06, global = -8.97468e-20, cumulative = -5.37801e-19
DICPCG:  Solving for p_rgh, Initial residual = 0.01271, Final residual = 0.000469138, No Iterations 10
time step continuity errors : sum local = 7.49222e-07, global = -7.67014e-20, cumulative = -6.14502e-19
DICPCG:  Solving for p_rgh, Initial residual = 0.00204439, Final residual = 8.32802e-08, No Iterations 93
time step continuity errors : sum local = 1.31328e-10, global = -1.09139e-19, cumulative = -7.2364e-19
ExecutionTime = 0.85 s  ClockTime = 2 s

Courant Number mean: 0.0790667 max: 0.496656
Interface Courant Number mean: 0.00722183 max: 0.49035
deltaT = 0.00274859
Time = 0.111257

PIMPLE: iteration 1
MULES: Solving for alpha.water
Phase-1 volume fraction = 0.25  Min(alpha.water) = 1.54007e-112  Max(alpha.water) = 1
MULES: Solving for alpha.water
Phase-1 volume fraction = 0.25  Min(alpha.water) = 1.17476e-111  Max(alpha.water) = 1
DICPCG:  Solving for p_rgh, Initial residual = 0.0426699, Final residual = 0.00149905, No Iterations 7
time step continuity errors : sum local = 2.44328e-06, global = -1.25326e-19, cumulative = -8.48966e-19
DICPCG:  Solving for p_rgh, Initial residual = 0.0121328, Final residual = 0.000473323, No Iterations 10
time step continuity errors : sum local = 7.74551e-07, global = -6.7575e-20, cumulative = -9.16541e-19
DICPCG:  Solving for p_rgh, Initial residual = 0.00199787, Final residual = 8.0652e-08, No Iterations 94
time step continuity errors : sum local = 1.27744e-10, global = 2.40586e-20, cumulative = -8.92483e-19
ExecutionTime = 0.87 s  ClockTime = 2 s

Courant Number mean: 0.0792902 max: 0.494991
Interface Courant Number mean: 0.00741356 max: 0.491934
deltaT = 0.00274859
Time = 0.114006

PIMPLE: iteration 1
MULES: Solving for alpha.water
Phase-1 volume fraction = 0.25  Min(alpha.water) = 8.78701e-111  Max(alpha.water) = 1
MULES: Solving for alpha.water
Phase-1 volume fraction = 0.25  Min(alpha.water) = 6.11857e-110  Max(alpha.water) = 1
DICPCG:  Solving for p_rgh, Initial residual = 0.0449525, Final residual = 0.00154279, No Iterations 7
time step continuity errors : sum local = 2.50147e-06, global = -1.75793e-19, cumulative = -1.06828e-18
DICPCG:  Solving for p_rgh, Initial residual = 0.0120698, Final residual = 0.000484902, No Iterations 10
time step continuity errors : sum local = 7.90551e-07, global = -1.1104e-19, cumulative = -1.17932e-18
DICPCG:  Solving for p_rgh, Initial residual = 0.00198998, Final residual = 7.83014e-08, No Iterations 94
time step continuity errors : sum local = 1.23175e-10, global = 8.43113e-20, cumulative = -1.095e-18
ExecutionTime = 0.88 s  ClockTime = 2 s

Courant Number mean: 0.0795236 max: 0.492946
Interface Courant Number mean: 0.00736117 max: 0.492946
deltaT = 0.00274859
Time = 0.116754

PIMPLE: iteration 1
MULES: Solving for alpha.water
Phase-1 volume fraction = 0.25  Min(alpha.water) = 4.18328e-109  Max(alpha.water) = 1
MULES: Solving for alpha.water
Phase-1 volume fraction = 0.25  Min(alpha.water) = 2.67717e-108  Max(alpha.water) = 1
DICPCG:  Solving for p_rgh, Initial residual = 0.0461221, Final residual = 0.00147114, No Iterations 7
time step continuity errors : sum local = 2.3554e-06, global = -1.15771e-19, cumulative = -1.21078e-18
DICPCG:  Solving for p_rgh, Initial residual = 0.0122264, Final residual = 0.000463661, No Iterations 10
time step continuity errors : sum local = 7.36506e-07, global = 2.99892e-20, cumulative = -1.18079e-18
DICPCG:  Solving for p_rgh, Initial residual = 0.00197799, Final residual = 7.52389e-08, No Iterations 94
time step continuity errors : sum local = 1.16987e-10, global = 1.98203e-19, cumulative = -9.82583e-19
ExecutionTime = 0.9 s  ClockTime = 2 s

Courant Number mean: 0.0797551 max: 0.493112
Interface Courant Number mean: 0.00711295 max: 0.493112
deltaT = 0.00274859
Time = 0.119503

PIMPLE: iteration 1
MULES: Solving for alpha.water
Phase-1 volume fraction = 0.25  Min(alpha.water) = 1.68496e-107  Max(alpha.water) = 1
MULES: Solving for alpha.water
Phase-1 volume fraction = 0.25  Min(alpha.water) = 9.99885e-107  Max(alpha.water) = 1
DICPCG:  Solving for p_rgh, Initial residual = 0.0480774, Final residual = 0.00230497, No Iterations 5
time step continuity errors : sum local = 3.59231e-06, global = -8.46206e-20, cumulative = -1.0672e-18
DICPCG:  Solving for p_rgh, Initial residual = 0.0122076, Final residual = 0.000420926, No Iterations 10
time step continuity errors : sum local = 6.59701e-07, global = -8.4301e-20, cumulative = -1.1515e-18
DICPCG:  Solving for p_rgh, Initial residual = 0.0019487, Final residual = 8.58981e-08, No Iterations 93
time step continuity errors : sum local = 1.32453e-10, global = 5.28191e-20, cumulative = -1.09869e-18
ExecutionTime = 0.92 s  ClockTime = 2 s

Courant Number mean: 0.0799766 max: 0.49221
Interface Courant Number mean: 0.00696221 max: 0.49221
deltaT = 0.00274859
Time = 0.122251

PIMPLE: iteration 1
MULES: Solving for alpha.water
Phase-1 volume fraction = 0.25  Min(alpha.water) = 5.86412e-106  Max(alpha.water) = 1
MULES: Solving for alpha.water
Phase-1 volume fraction = 0.25  Min(alpha.water) = 3.27789e-105  Max(alpha.water) = 1
DICPCG:  Solving for p_rgh, Initial residual = 0.0478492, Final residual = 0.00238947, No Iterations 4
time step continuity errors : sum local = 3.7102e-06, global = -2.77278e-20, cumulative = -1.12641e-18
DICPCG:  Solving for p_rgh, Initial residual = 0.0115023, Final residual = 0.00044256, No Iterations 10
time step continuity errors : sum local = 7.03412e-07, global = 7.37291e-20, cumulative = -1.05268e-18
DICPCG:  Solving for p_rgh, Initial residual = 0.00193575, Final residual = 7.34774e-08, No Iterations 91
time step continuity errors : sum local = 1.15192e-10, global = -2.36484e-20, cumulative = -1.07633e-18
ExecutionTime = 0.93 s  ClockTime = 2 s

Courant Number mean: 0.0802054 max: 0.49233
Interface Courant Number mean: 0.00731738 max: 0.490591
deltaT = 0.00274859
Time = 0.125

PIMPLE: iteration 1
MULES: Solving for alpha.water
Phase-1 volume fraction = 0.25  Min(alpha.water) = 1.81958e-104  Max(alpha.water) = 1
MULES: Solving for alpha.water
Phase-1 volume fraction = 0.25  Min(alpha.water) = 9.64539e-104  Max(alpha.water) = 1
DICPCG:  Solving for p_rgh, Initial residual = 0.0444379, Final residual = 0.00208851, No Iterations 6
time step continuity errors : sum local = 3.31157e-06, global = -4.6584e-20, cumulative = -1.12292e-18
DICPCG:  Solving for p_rgh, Initial residual = 0.0116874, Final residual = 0.000444666, No Iterations 10
time step continuity errors : sum local = 7.1241e-07, global = 1.24245e-19, cumulative = -9.98672e-19
DICPCG:  Solving for p_rgh, Initial residual = 0.00180499, Final residual = 9.2064e-08, No Iterations 93
time step continuity errors : sum local = 1.44915e-10, global = 5.62827e-21, cumulative = -9.93043e-19
ExecutionTime = 0.97 s  ClockTime = 2 s

Courant Number mean: 0.0804334 max: 0.492404
Interface Courant Number mean: 0.0076044 max: 0.488418
deltaT = 0.00277778
Time = 0.127778

PIMPLE: iteration 1
MULES: Solving for alpha.water
Phase-1 volume fraction = 0.25  Min(alpha.water) = 5.10658e-103  Max(alpha.water) = 1
MULES: Solving for alpha.water
Phase-1 volume fraction = 0.25  Min(alpha.water) = 2.57554e-102  Max(alpha.water) = 1
DICPCG:  Solving for p_rgh, Initial residual = 0.0426387, Final residual = 0.00139803, No Iterations 7
time step continuity errors : sum local = 2.32281e-06, global = -7.4045e-20, cumulative = -1.06709e-18
DICPCG:  Solving for p_rgh, Initial residual = 0.0112161, Final residual = 0.000515639, No Iterations 10
time step continuity errors : sum local = 8.62267e-07, global = 2.07907e-19, cumulative = -8.59181e-19
DICPCG:  Solving for p_rgh, Initial residual = 0.00186925, Final residual = 9.80914e-08, No Iterations 93
time step continuity errors : sum local = 1.60016e-10, global = -1.61402e-20, cumulative = -8.75321e-19
ExecutionTime = 0.99 s  ClockTime = 2 s

Courant Number mean: 0.0815163 max: 0.49696
Interface Courant Number mean: 0.00775523 max: 0.492997
deltaT = 0.00277778
Time = 0.130556

PIMPLE: iteration 1
MULES: Solving for alpha.water
Phase-1 volume fraction = 0.25  Min(alpha.water) = 1.28203e-101  Max(alpha.water) = 1
MULES: Solving for alpha.water
Phase-1 volume fraction = 0.25  Min(alpha.water) = 6.08241e-101  Max(alpha.water) = 1
DICPCG:  Solving for p_rgh, Initial residual = 0.0413116, Final residual = 0.0012765, No Iterations 7
time step continuity errors : sum local = 2.14733e-06, global = -1.21383e-19, cumulative = -9.96704e-19
DICPCG:  Solving for p_rgh, Initial residual = 0.010955, Final residual = 0.000450424, No Iterations 10
time step continuity errors : sum local = 7.6885e-07, global = -9.95837e-20, cumulative = -1.09629e-18
DICPCG:  Solving for p_rgh, Initial residual = 0.00180559, Final residual = 9.89916e-08, No Iterations 93
time step continuity errors : sum local = 1.62431e-10, global = -1.57851e-19, cumulative = -1.25414e-18
ExecutionTime = 1 s  ClockTime = 2 s

Courant Number mean: 0.0817522 max: 0.495669
Interface Courant Number mean: 0.0077505 max: 0.494824
deltaT = 0.00277778
Time = 0.133333

PIMPLE: iteration 1
MULES: Solving for alpha.water
Phase-1 volume fraction = 0.25  Min(alpha.water) = 2.84579e-100  Max(alpha.water) = 1
MULES: Solving for alpha.water
Phase-1 volume fraction = 0.25  Min(alpha.water) = 1.27294e-99  Max(alpha.water) = 1
DICPCG:  Solving for p_rgh, Initial residual = 0.0420568, Final residual = 0.00137599, No Iterations 7
time step continuity errors : sum local = 2.32133e-06, global = -1.06672e-19, cumulative = -1.36081e-18
DICPCG:  Solving for p_rgh, Initial residual = 0.0108525, Final residual = 0.000511793, No Iterations 10
time step continuity errors : sum local = 8.62727e-07, global = -4.54071e-20, cumulative = -1.40622e-18
DICPCG:  Solving for p_rgh, Initial residual = 0.00181807, Final residual = 9.38214e-08, No Iterations 93
time step continuity errors : sum local = 1.55656e-10, global = 2.68043e-20, cumulative = -1.37941e-18
ExecutionTime = 1.02 s  ClockTime = 2 s

Courant Number mean: 0.0819839 max: 0.495975
Interface Courant Number mean: 0.00759263 max: 0.495975
deltaT = 0.00277778
Time = 0.136111

PIMPLE: iteration 1
MULES: Solving for alpha.water
Phase-1 volume fraction = 0.25  Min(alpha.water) = 5.61856e-99  Max(alpha.water) = 1
MULES: Solving for alpha.water
Phase-1 volume fraction = 0.25  Min(alpha.water) = 2.37873e-98  Max(alpha.water) = 1
DICPCG:  Solving for p_rgh, Initial residual = 0.0397089, Final residual = 0.00191801, No Iterations 6
time step continuity errors : sum local = 3.21582e-06, global = -8.27212e-21, cumulative = -1.38769e-18
DICPCG:  Solving for p_rgh, Initial residual = 0.0108224, Final residual = 0.000392833, No Iterations 10
time step continuity errors : sum local = 6.62455e-07, global = -9.92654e-20, cumulative = -1.48695e-18
DICPCG:  Solving for p_rgh, Initial residual = 0.00170122, Final residual = 6.34704e-08, No Iterations 90
time step continuity errors : sum local = 1.05391e-10, global = 3.43502e-20, cumulative = -1.4526e-18
ExecutionTime = 1.04 s  ClockTime = 2 s

Courant Number mean: 0.0822086 max: 0.496299
Interface Courant Number mean: 0.00770103 max: 0.496299
deltaT = 0.00277778
Time = 0.138889

PIMPLE: iteration 1
MULES: Solving for alpha.water
Phase-1 volume fraction = 0.25  Min(alpha.water) = 9.93534e-98  Max(alpha.water) = 1
MULES: Solving for alpha.water
Phase-1 volume fraction = 0.25  Min(alpha.water) = 3.99203e-97  Max(alpha.water) = 1
DICPCG:  Solving for p_rgh, Initial residual = 0.0452082, Final residual = 0.00207066, No Iterations 5
time step continuity errors : sum local = 3.49536e-06, global = 1.4881e-19, cumulative = -1.30379e-18
DICPCG:  Solving for p_rgh, Initial residual = 0.0103488, Final residual = 0.000506007, No Iterations 10
time step continuity errors : sum local = 8.86133e-07, global = 7.05608e-20, cumulative = -1.23323e-18
DICPCG:  Solving for p_rgh, Initial residual = 0.00176039, Final residual = 6.13124e-08, No Iterations 91
time step continuity errors : sum local = 1.04065e-10, global = -3.13607e-20, cumulative = -1.26459e-18
ExecutionTime = 1.05 s  ClockTime = 2 s

Courant Number mean: 0.0824303 max: 0.496178
Interface Courant Number mean: 0.00787777 max: 0.496178
deltaT = 0.00277778
Time = 0.141667

PIMPLE: iteration 1
MULES: Solving for alpha.water
Phase-1 volume fraction = 0.25  Min(alpha.water) = 1.58155e-96  Max(alpha.water) = 1
MULES: Solving for alpha.water
Phase-1 volume fraction = 0.25  Min(alpha.water) = 6.04349e-96  Max(alpha.water) = 1
DICPCG:  Solving for p_rgh, Initial residual = 0.0404968, Final residual = 0.00199171, No Iterations 6
time step continuity errors : sum local = 3.46064e-06, global = 8.62282e-20, cumulative = -1.17836e-18
DICPCG:  Solving for p_rgh, Initial residual = 0.0104896, Final residual = 0.000494648, No Iterations 10
time step continuity errors : sum local = 8.95437e-07, global = 6.35962e-20, cumulative = -1.11477e-18
DICPCG:  Solving for p_rgh, Initial residual = 0.00165602, Final residual = 9.357e-08, No Iterations 93
time step continuity errors : sum local = 1.61581e-10, global = -7.13699e-20, cumulative = -1.18614e-18
ExecutionTime = 1.07 s  ClockTime = 2 s

Courant Number mean: 0.0826585 max: 0.495566
Interface Courant Number mean: 0.00798709 max: 0.495566
deltaT = 0.00277778
Time = 0.144444

PIMPLE: iteration 1
MULES: Solving for alpha.water
Phase-1 volume fraction = 0.25  Min(alpha.water) = 2.27965e-95  Max(alpha.water) = 1
MULES: Solving for alpha.water
Phase-1 volume fraction = 0.25  Min(alpha.water) = 8.31249e-95  Max(alpha.water) = 1
DICPCG:  Solving for p_rgh, Initial residual = 0.0371508, Final residual = 0.00126197, No Iterations 7
time step continuity errors : sum local = 2.22199e-06, global = -1.30821e-19, cumulative = -1.31696e-18
DICPCG:  Solving for p_rgh, Initial residual = 0.00969496, Final residual = 0.000411585, No Iterations 10
time step continuity errors : sum local = 7.33942e-07, global = 1.59825e-19, cumulative = -1.15713e-18
DICPCG:  Solving for p_rgh, Initial residual = 0.00160339, Final residual = 9.34148e-08, No Iterations 93
time step continuity errors : sum local = 1.6237e-10, global = 2.18467e-19, cumulative = -9.38665e-19
ExecutionTime = 1.09 s  ClockTime = 2 s

Courant Number mean: 0.0828901 max: 0.493898
Interface Courant Number mean: 0.0080349 max: 0.493898
deltaT = 0.00277778
Time = 0.147222

PIMPLE: iteration 1
MULES: Solving for alpha.water
Phase-1 volume fraction = 0.25  Min(alpha.water) = 2.9945e-94  Max(alpha.water) = 1
MULES: Solving for alpha.water
Phase-1 volume fraction = 0.25  Min(alpha.water) = 1.0449e-93  Max(alpha.water) = 1
DICPCG:  Solving for p_rgh, Initial residual = 0.0376829, Final residual = 0.00129065, No Iterations 7
time step continuity errors : sum local = 2.28586e-06, global = -1.01023e-19, cumulative = -1.03969e-18
DICPCG:  Solving for p_rgh, Initial residual = 0.00970741, Final residual = 0.000470665, No Iterations 10
time step continuity errors : sum local = 8.37435e-07, global = -7.92979e-20, cumulative = -1.11899e-18
DICPCG:  Solving for p_rgh, Initial residual = 0.0016033, Final residual = 8.49094e-08, No Iterations 93
time step continuity errors : sum local = 1.48186e-10, global = -5.68365e-20, cumulative = -1.17582e-18
ExecutionTime = 1.1 s  ClockTime = 2 s

Courant Number mean: 0.0831165 max: 0.491032
Interface Courant Number mean: 0.00792534 max: 0.491032
deltaT = 0.00277778
Time = 0.15

PIMPLE: iteration 1
MULES: Solving for alpha.water
Phase-1 volume fraction = 0.25  Min(alpha.water) = 3.59984e-93  Max(alpha.water) = 1
MULES: Solving for alpha.water
Phase-1 volume fraction = 0.25  Min(alpha.water) = 1.20361e-92  Max(alpha.water) = 1
DICPCG:  Solving for p_rgh, Initial residual = 0.040851, Final residual = 0.00177249, No Iterations 6
time step continuity errors : sum local = 3.10707e-06, global = -8.20654e-20, cumulative = -1.25789e-18
DICPCG:  Solving for p_rgh, Initial residual = 0.0100198, Final residual = 0.000370985, No Iterations 10
time step continuity errors : sum local = 6.5325e-07, global = -4.97957e-20, cumulative = -1.30768e-18
DICPCG:  Solving for p_rgh, Initial residual = 0.00153855, Final residual = 7.21707e-08, No Iterations 92
time step continuity errors : sum local = 1.24807e-10, global = 1.62402e-20, cumulative = -1.29144e-18
ExecutionTime = 1.12 s  ClockTime = 2 s

Courant Number mean: 0.0833437 max: 0.488998
Interface Courant Number mean: 0.00845088 max: 0.488998
deltaT = 0.00277778
Time = 0.152778

PIMPLE: iteration 1
MULES: Solving for alpha.water
Phase-1 volume fraction = 0.25  Min(alpha.water) = 3.97571e-92  Max(alpha.water) = 1
MULES: Solving for alpha.water
Phase-1 volume fraction = 0.25  Min(alpha.water) = 1.2768e-91  Max(alpha.water) = 1
DICPCG:  Solving for p_rgh, Initial residual = 0.042624, Final residual = 0.00189283, No Iterations 4
time step continuity errors : sum local = 3.28508e-06, global = 6.21247e-20, cumulative = -1.22932e-18
DICPCG:  Solving for p_rgh, Initial residual = 0.00941594, Final residual = 0.000388578, No Iterations 10
time step continuity errors : sum local = 6.77744e-07, global = 2.24605e-20, cumulative = -1.20686e-18
DICPCG:  Solving for p_rgh, Initial residual = 0.00159137, Final residual = 8.1805e-08, No Iterations 91
time step continuity errors : sum local = 1.41851e-10, global = 9.07426e-20, cumulative = -1.11611e-18
ExecutionTime = 1.14 s  ClockTime = 2 s

Courant Number mean: 0.0835585 max: 0.48945
Interface Courant Number mean: 0.00849292 max: 0.48945
deltaT = 0.00277778
Time = 0.155556

PIMPLE: iteration 1
MULES: Solving for alpha.water
Phase-1 volume fraction = 0.25  Min(alpha.water) = 4.05368e-91  Max(alpha.water) = 1
MULES: Solving for alpha.water
Phase-1 volume fraction = 0.25  Min(alpha.water) = 1.25411e-90  Max(alpha.water) = 1
DICPCG:  Solving for p_rgh, Initial residual = 0.0414324, Final residual = 0.00201601, No Iterations 4
time step continuity errors : sum local = 3.54034e-06, global = 5.638e-20, cumulative = -1.05973e-18
DICPCG:  Solving for p_rgh, Initial residual = 0.00936551, Final residual = 0.000349726, No Iterations 10
time step continuity errors : sum local = 6.24197e-07, global = 1.34012e-20, cumulative = -1.04633e-18
DICPCG:  Solving for p_rgh, Initial residual = 0.00154405, Final residual = 9.24368e-08, No Iterations 91
time step continuity errors : sum local = 1.62749e-10, global = 4.49582e-20, cumulative = -1.00138e-18
ExecutionTime = 1.15 s  ClockTime = 2 s

Courant Number mean: 0.0837661 max: 0.488695
Interface Courant Number mean: 0.00871668 max: 0.488695
deltaT = 0.00277778
Time = 0.158333

PIMPLE: iteration 1
MULES: Solving for alpha.water
Phase-1 volume fraction = 0.25  Min(alpha.water) = 3.84653e-90  Max(alpha.water) = 1
MULES: Solving for alpha.water
Phase-1 volume fraction = 0.25  Min(alpha.water) = 1.15509e-89  Max(alpha.water) = 1
DICPCG:  Solving for p_rgh, Initial residual = 0.0421391, Final residual = 0.00181889, No Iterations 5
time step continuity errors : sum local = 3.231e-06, global = -4.24203e-20, cumulative = -1.0438e-18
DICPCG:  Solving for p_rgh, Initial residual = 0.009269, Final residual = 0.000349064, No Iterations 10
time step continuity errors : sum local = 6.44052e-07, global = -9.54152e-21, cumulative = -1.05334e-18
DICPCG:  Solving for p_rgh, Initial residual = 0.00150104, Final residual = 9.50775e-08, No Iterations 89
time step continuity errors : sum local = 1.70006e-10, global = 1.10435e-20, cumulative = -1.04229e-18
ExecutionTime = 1.17 s  ClockTime = 2 s

Courant Number mean: 0.0839798 max: 0.48727
Interface Courant Number mean: 0.00870418 max: 0.48727
deltaT = 0.00277778
Time = 0.161111

PIMPLE: iteration 1
MULES: Solving for alpha.water
Phase-1 volume fraction = 0.25  Min(alpha.water) = 3.44759e-89  Max(alpha.water) = 1
MULES: Solving for alpha.water
Phase-1 volume fraction = 0.25  Min(alpha.water) = 1.01004e-88  Max(alpha.water) = 1
DICPCG:  Solving for p_rgh, Initial residual = 0.0400525, Final residual = 0.00199058, No Iterations 5
time step continuity errors : sum local = 3.58817e-06, global = -3.51927e-20, cumulative = -1.07749e-18
DICPCG:  Solving for p_rgh, Initial residual = 0.00957573, Final residual = 0.000374515, No Iterations 10
time step continuity errors : sum local = 6.72554e-07, global = -2.33853e-20, cumulative = -1.10087e-18
DICPCG:  Solving for p_rgh, Initial residual = 0.00147943, Final residual = 9.08925e-08, No Iterations 88
time step continuity errors : sum local = 1.63501e-10, global = -4.67584e-20, cumulative = -1.14763e-18
ExecutionTime = 1.19 s  ClockTime = 2 s

Courant Number mean: 0.0841836 max: 0.485391
Interface Courant Number mean: 0.00844296 max: 0.485391
deltaT = 0.00277778
Time = 0.163889

PIMPLE: iteration 1
MULES: Solving for alpha.water
Phase-1 volume fraction = 0.25  Min(alpha.water) = 2.93918e-88  Max(alpha.water) = 1
MULES: Solving for alpha.water
Phase-1 volume fraction = 0.25  Min(alpha.water) = 8.3908e-88  Max(alpha.water) = 1
DICPCG:  Solving for p_rgh, Initial residual = 0.0409084, Final residual = 0.00171584, No Iterations 4
time step continuity errors : sum local = 3.07343e-06, global = 6.54526e-20, cumulative = -1.08218e-18
DICPCG:  Solving for p_rgh, Initial residual = 0.00894147, Final residual = 0.000358915, No Iterations 10
time step continuity errors : sum local = 6.53708e-07, global = 5.9649e-21, cumulative = -1.07621e-18
DICPCG:  Solving for p_rgh, Initial residual = 0.0014845, Final residual = 8.25645e-08, No Iterations 92
time step continuity errors : sum local = 1.47806e-10, global = -1.907e-19, cumulative = -1.26691e-18
ExecutionTime = 1.2 s  ClockTime = 2 s

Courant Number mean: 0.0843812 max: 0.482741
Interface Courant Number mean: 0.00842573 max: 0.482741
deltaT = 0.00287037
Time = 0.166759

PIMPLE: iteration 1
MULES: Solving for alpha.water
Phase-1 volume fraction = 0.25  Min(alpha.water) = 2.42436e-87  Max(alpha.water) = 1
MULES: Solving for alpha.water
Phase-1 volume fraction = 0.25  Min(alpha.water) = 6.86259e-87  Max(alpha.water) = 1
DICPCG:  Solving for p_rgh, Initial residual = 0.0443954, Final residual = 0.00206061, No Iterations 4
time step continuity errors : sum local = 3.94481e-06, global = 4.50397e-20, cumulative = -1.22187e-18
DICPCG:  Solving for p_rgh, Initial residual = 0.00927635, Final residual = 0.000385972, No Iterations 11
time step continuity errors : sum local = 7.74496e-07, global = 1.68918e-19, cumulative = -1.05296e-18
DICPCG:  Solving for p_rgh, Initial residual = 0.00158668, Final residual = 8.03972e-08, No Iterations 92
time step continuity errors : sum local = 1.537e-10, global = 3.06945e-20, cumulative = -1.02226e-18
ExecutionTime = 1.22 s  ClockTime = 2 s

Courant Number mean: 0.0874018 max: 0.495703
Interface Courant Number mean: 0.00879444 max: 0.494292
deltaT = 0.00287037
Time = 0.16963

PIMPLE: iteration 1
MULES: Solving for alpha.water
Phase-1 volume fraction = 0.25  Min(alpha.water) = 1.91966e-86  Max(alpha.water) = 1
MULES: Solving for alpha.water
Phase-1 volume fraction = 0.25  Min(alpha.water) = 5.26114e-86  Max(alpha.water) = 1
DICPCG:  Solving for p_rgh, Initial residual = 0.0404188, Final residual = 0.00194074, No Iterations 5
time step continuity errors : sum local = 3.72186e-06, global = 5.40317e-20, cumulative = -9.68229e-19
DICPCG:  Solving for p_rgh, Initial residual = 0.00921769, Final residual = 0.000344238, No Iterations 10
time step continuity errors : sum local = 6.68638e-07, global = -1.21831e-19, cumulative = -1.09006e-18
DICPCG:  Solving for p_rgh, Initial residual = 0.00142903, Final residual = 7.89222e-08, No Iterations 92
time step continuity errors : sum local = 1.51762e-10, global = -6.20704e-21, cumulative = -1.09627e-18
ExecutionTime = 1.24 s  ClockTime = 2 s

Courant Number mean: 0.0876206 max: 0.495391
Interface Courant Number mean: 0.00911685 max: 0.488999
deltaT = 0.00287037
Time = 0.1725

PIMPLE: iteration 1
MULES: Solving for alpha.water
Phase-1 volume fraction = 0.25  Min(alpha.water) = 1.42357e-85  Max(alpha.water) = 1
MULES: Solving for alpha.water
Phase-1 volume fraction = 0.25  Min(alpha.water) = 3.7772e-85  Max(alpha.water) = 1
DICPCG:  Solving for p_rgh, Initial residual = 0.0343171, Final residual = 0.00140673, No Iterations 6
time step continuity errors : sum local = 2.75644e-06, global = 4.07869e-20, cumulative = -1.05548e-18
DICPCG:  Solving for p_rgh, Initial residual = 0.00901132, Final residual = 0.000307357, No Iterations 10
time step continuity errors : sum local = 6.1683e-07, global = 1.15433e-19, cumulative = -9.40047e-19
DICPCG:  Solving for p_rgh, Initial residual = 0.00140159, Final residual = 9.07046e-08, No Iterations 92
time step continuity errors : sum local = 1.74426e-10, global = 8.03227e-20, cumulative = -8.59724e-19
ExecutionTime = 1.25 s  ClockTime = 2 s

Courant Number mean: 0.0878327 max: 0.494504
Interface Courant Number mean: 0.0092439 max: 0.487761
deltaT = 0.00287037
Time = 0.17537

PIMPLE: iteration 1
MULES: Solving for alpha.water
Phase-1 volume fraction = 0.25  Min(alpha.water) = 9.89516e-85  Max(alpha.water) = 1
MULES: Solving for alpha.water
Phase-1 volume fraction = 0.25  Min(alpha.water) = 2.5453e-84  Max(alpha.water) = 1
DICPCG:  Solving for p_rgh, Initial residual = 0.0387207, Final residual = 0.00173272, No Iterations 5
time step continuity errors : sum local = 3.32955e-06, global = 3.35119e-21, cumulative = -8.56373e-19
DICPCG:  Solving for p_rgh, Initial residual = 0.00898403, Final residual = 0.000371397, No Iterations 10
time step continuity errors : sum local = 7.21116e-07, global = -6.63246e-20, cumulative = -9.22697e-19
DICPCG:  Solving for p_rgh, Initial residual = 0.00141173, Final residual = 9.34645e-08, No Iterations 92
time step continuity errors : sum local = 1.78449e-10, global = 2.51551e-20, cumulative = -8.97542e-19
ExecutionTime = 1.27 s  ClockTime = 2 s

Courant Number mean: 0.0880447 max: 0.493074
Interface Courant Number mean: 0.00936307 max: 0.488008
deltaT = 0.00287037
Time = 0.178241

PIMPLE: iteration 1
MULES: Solving for alpha.water
Phase-1 volume fraction = 0.25  Min(alpha.water) = 6.46957e-84  Max(alpha.water) = 1
MULES: Solving for alpha.water
Phase-1 volume fraction = 0.25  Min(alpha.water) = 1.61682e-83  Max(alpha.water) = 1
DICPCG:  Solving for p_rgh, Initial residual = 0.0394823, Final residual = 0.00185943, No Iterations 5
time step continuity errors : sum local = 3.58163e-06, global = -2.32112e-20, cumulative = -9.20753e-19
DICPCG:  Solving for p_rgh, Initial residual = 0.00914622, Final residual = 0.000456011, No Iterations 10
time step continuity errors : sum local = 9.06259e-07, global = 2.83911e-20, cumulative = -8.92362e-19
DICPCG:  Solving for p_rgh, Initial residual = 0.0014749, Final residual = 9.76576e-08, No Iterations 92
time step continuity errors : sum local = 1.8548e-10, global = 1.0622e-19, cumulative = -7.86143e-19
ExecutionTime = 1.29 s  ClockTime = 2 s

Courant Number mean: 0.0882482 max: 0.491087
Interface Courant Number mean: 0.00941329 max: 0.488063
deltaT = 0.00287037
Time = 0.181111

PIMPLE: iteration 1
MULES: Solving for alpha.water
Phase-1 volume fraction = 0.25  Min(alpha.water) = 3.99236e-83  Max(alpha.water) = 1
MULES: Solving for alpha.water
Phase-1 volume fraction = 0.25  Min(alpha.water) = 9.70447e-83  Max(alpha.water) = 1
DICPCG:  Solving for p_rgh, Initial residual = 0.0450472, Final residual = 0.0018833, No Iterations 4
time step continuity errors : sum local = 3.60216e-06, global = 5.05958e-20, cumulative = -7.35547e-19
DICPCG:  Solving for p_rgh, Initial residual = 0.00859365, Final residual = 0.000382517, No Iterations 10
time step continuity errors : sum local = 7.47542e-07, global = -4.29165e-20, cumulative = -7.78463e-19
DICPCG:  Solving for p_rgh, Initial residual = 0.00146972, Final residual = 8.97959e-08, No Iterations 93
time step continuity errors : sum local = 1.71396e-10, global = -1.32817e-20, cumulative = -7.91745e-19
ExecutionTime = 1.3 s  ClockTime = 2 s

Courant Number mean: 0.088443 max: 0.488574
Interface Courant Number mean: 0.00925818 max: 0.487931
deltaT = 0.00287037
Time = 0.183981

PIMPLE: iteration 1
MULES: Solving for alpha.water
Phase-1 volume fraction = 0.25  Min(alpha.water) = 2.33077e-82  Max(alpha.water) = 1
MULES: Solving for alpha.water
Phase-1 volume fraction = 0.25  Min(alpha.water) = 5.51626e-82  Max(alpha.water) = 1
DICPCG:  Solving for p_rgh, Initial residual = 0.045743, Final residual = 0.00193848, No Iterations 6
time step continuity errors : sum local = 3.75946e-06, global = -1.08345e-20, cumulative = -8.02579e-19
DICPCG:  Solving for p_rgh, Initial residual = 0.009171, Final residual = 0.000429742, No Iterations 10
time step continuity errors : sum local = 8.90377e-07, global = -4.63298e-20, cumulative = -8.48909e-19
DICPCG:  Solving for p_rgh, Initial residual = 0.00141137, Final residual = 7.61188e-08, No Iterations 92
time step continuity errors : sum local = 1.45565e-10, global = -2.30723e-19, cumulative = -1.07963e-18
ExecutionTime = 1.32 s  ClockTime = 2 s

Courant Number mean: 0.0886261 max: 0.486572
Interface Courant Number mean: 0.0095131 max: 0.486572
deltaT = 0.00287037
Time = 0.186852

PIMPLE: iteration 1
[...]

Courant Number mean: 0.0856351 max: 0.492573
Interface Courant Number mean: 0.04183 max: 0.492573
deltaT = 0.00546875
Time = 3.90156

PIMPLE: iteration 1
MULES: Solving for alpha.water
Phase-1 volume fraction = 0.25  Min(alpha.water) = 8.6193e-23  Max(alpha.water) = 1
MULES: Solving for alpha.water
Phase-1 volume fraction = 0.25  Min(alpha.water) = 8.6477e-23  Max(alpha.water) = 1
DICPCG:  Solving for p_rgh, Initial residual = 0.124845, Final residual = 0.00514688, No Iterations 3
time step continuity errors : sum local = 6.50202e-05, global = -9.00725e-20, cumulative = 1.00865e-18
DICPCG:  Solving for p_rgh, Initial residual = 0.00949864, Final residual = 0.000451156, No Iterations 15
time step continuity errors : sum local = 5.72498e-06, global = -2.0685e-19, cumulative = 8.01798e-19
DICPCG:  Solving for p_rgh, Initial residual = 0.00167683, Final residual = 9.16017e-08, No Iterations 97
time step continuity errors : sum local = 1.16468e-09, global = -4.18363e-20, cumulative = 7.59962e-19
ExecutionTime = 16.55 s  ClockTime = 28 s

Courant Number mean: 0.0856535 max: 0.486669
Interface Courant Number mean: 0.0424491 max: 0.486669
deltaT = 0.00546875
Time = 3.90703

PIMPLE: iteration 1
MULES: Solving for alpha.water
Phase-1 volume fraction = 0.25  Min(alpha.water) = 8.67515e-23  Max(alpha.water) = 1
MULES: Solving for alpha.water
Phase-1 volume fraction = 0.25  Min(alpha.water) = 8.70265e-23  Max(alpha.water) = 1
DICPCG:  Solving for p_rgh, Initial residual = 0.110701, Final residual = 0.00401655, No Iterations 2
time step continuity errors : sum local = 5.03834e-05, global = 2.8076e-20, cumulative = 7.88038e-19
DICPCG:  Solving for p_rgh, Initial residual = 0.00851909, Final residual = 0.000409439, No Iterations 15
time step continuity errors : sum local = 5.08102e-06, global = -1.63034e-19, cumulative = 6.25004e-19
DICPCG:  Solving for p_rgh, Initial residual = 0.00161309, Final residual = 9.47091e-08, No Iterations 92
time step continuity errors : sum local = 1.17551e-09, global = 2.25077e-19, cumulative = 8.5008e-19
ExecutionTime = 16.57 s  ClockTime = 28 s

Courant Number mean: 0.0856289 max: 0.480588
Interface Courant Number mean: 0.0422207 max: 0.480588
deltaT = 0.00546875
Time = 3.9125

PIMPLE: iteration 1
MULES: Solving for alpha.water
Phase-1 volume fraction = 0.25  Min(alpha.water) = 8.72839e-23  Max(alpha.water) = 1
MULES: Solving for alpha.water
Phase-1 volume fraction = 0.25  Min(alpha.water) = 8.75418e-23  Max(alpha.water) = 1
DICPCG:  Solving for p_rgh, Initial residual = 0.117475, Final residual = 0.00418137, No Iterations 2
time step continuity errors : sum local = 5.13899e-05, global = 1.62102e-21, cumulative = 8.51701e-19
DICPCG:  Solving for p_rgh, Initial residual = 0.00826105, Final residual = 0.000375044, No Iterations 13
time step continuity errors : sum local = 4.62252e-06, global = -5.5349e-20, cumulative = 7.96352e-19
DICPCG:  Solving for p_rgh, Initial residual = 0.00163164, Final residual = 9.62199e-08, No Iterations 94
time step continuity errors : sum local = 1.17083e-09, global = 1.08303e-19, cumulative = 9.04656e-19
ExecutionTime = 16.59 s  ClockTime = 28 s

Courant Number mean: 0.0855478 max: 0.475077
Interface Courant Number mean: 0.0416958 max: 0.475077
deltaT = 0.00546875
Time = 3.91797

PIMPLE: iteration 1
MULES: Solving for alpha.water
Phase-1 volume fraction = 0.25  Min(alpha.water) = 8.77849e-23  Max(alpha.water) = 1
MULES: Solving for alpha.water
Phase-1 volume fraction = 0.25  Min(alpha.water) = 8.80285e-23  Max(alpha.water) = 1
DICPCG:  Solving for p_rgh, Initial residual = 0.125273, Final residual = 0.00353905, No Iterations 2
time step continuity errors : sum local = 4.30469e-05, global = -8.64457e-20, cumulative = 8.1821e-19
DICPCG:  Solving for p_rgh, Initial residual = 0.00820153, Final residual = 0.000396197, No Iterations 10
time step continuity errors : sum local = 4.80528e-06, global = 2.99785e-20, cumulative = 8.48189e-19
DICPCG:  Solving for p_rgh, Initial residual = 0.00164678, Final residual = 9.02978e-08, No Iterations 92
time step continuity errors : sum local = 1.09888e-09, global = -2.62654e-20, cumulative = 8.21923e-19
ExecutionTime = 16.61 s  ClockTime = 28 s

Courant Number mean: 0.0853886 max: 0.475105
Interface Courant Number mean: 0.0412795 max: 0.475105
deltaT = 0.00546875
Time = 3.92344

PIMPLE: iteration 1
MULES: Solving for alpha.water
Phase-1 volume fraction = 0.25  Min(alpha.water) = 8.82546e-23  Max(alpha.water) = 1
MULES: Solving for alpha.water
Phase-1 volume fraction = 0.25  Min(alpha.water) = 8.8481e-23  Max(alpha.water) = 1
DICPCG:  Solving for p_rgh, Initial residual = 0.117437, Final residual = 0.00540984, No Iterations 2
time step continuity errors : sum local = 6.51501e-05, global = -7.68093e-20, cumulative = 7.45114e-19
DICPCG:  Solving for p_rgh, Initial residual = 0.00971285, Final residual = 0.000478722, No Iterations 14
time step continuity errors : sum local = 5.76103e-06, global = -9.02394e-20, cumulative = 6.54874e-19
DICPCG:  Solving for p_rgh, Initial residual = 0.00186705, Final residual = 7.36361e-08, No Iterations 86
time step continuity errors : sum local = 8.97361e-10, global = 2.07557e-19, cumulative = 8.62431e-19
ExecutionTime = 16.63 s  ClockTime = 28 s

Courant Number mean: 0.0851859 max: 0.477031
Interface Courant Number mean: 0.0412967 max: 0.477031
deltaT = 0.00546875
Time = 3.92891

PIMPLE: iteration 1
MULES: Solving for alpha.water
Phase-1 volume fraction = 0.25  Min(alpha.water) = 8.86939e-23  Max(alpha.water) = 1
MULES: Solving for alpha.water
Phase-1 volume fraction = 0.25  Min(alpha.water) = 8.89072e-23  Max(alpha.water) = 1
DICPCG:  Solving for p_rgh, Initial residual = 0.119426, Final residual = 0.00477875, No Iterations 2
time step continuity errors : sum local = 5.70263e-05, global = -1.49889e-19, cumulative = 7.12542e-19
DICPCG:  Solving for p_rgh, Initial residual = 0.00885184, Final residual = 0.000349015, No Iterations 16
time step continuity errors : sum local = 4.25388e-06, global = -1.16983e-19, cumulative = 5.95559e-19
DICPCG:  Solving for p_rgh, Initial residual = 0.00164707, Final residual = 9.51241e-08, No Iterations 94
time step continuity errors : sum local = 1.13043e-09, global = -5.7319e-21, cumulative = 5.89827e-19
ExecutionTime = 16.64 s  ClockTime = 28 s

Courant Number mean: 0.0850486 max: 0.479217
Interface Courant Number mean: 0.0412679 max: 0.479217
deltaT = 0.00546875
Time = 3.93437

PIMPLE: iteration 1
MULES: Solving for alpha.water
Phase-1 volume fraction = 0.25  Min(alpha.water) = 8.91089e-23  Max(alpha.water) = 1
MULES: Solving for alpha.water
Phase-1 volume fraction = 0.25  Min(alpha.water) = 8.93109e-23  Max(alpha.water) = 1
DICPCG:  Solving for p_rgh, Initial residual = 0.115399, Final residual = 0.00499462, No Iterations 2
time step continuity errors : sum local = 5.96442e-05, global = -1.75345e-19, cumulative = 4.14482e-19
DICPCG:  Solving for p_rgh, Initial residual = 0.00913317, Final residual = 0.00045538, No Iterations 23
time step continuity errors : sum local = 5.47144e-06, global = -5.50112e-20, cumulative = 3.59471e-19
DICPCG:  Solving for p_rgh, Initial residual = 0.00176359, Final residual = 8.87533e-08, No Iterations 93
time step continuity errors : sum local = 1.06365e-09, global = -1.29426e-19, cumulative = 2.30045e-19
ExecutionTime = 16.66 s  ClockTime = 28 s

Courant Number mean: 0.0848657 max: 0.481335
Interface Courant Number mean: 0.0406881 max: 0.481335
deltaT = 0.00546875
Time = 3.93984

PIMPLE: iteration 1
MULES: Solving for alpha.water
Phase-1 volume fraction = 0.25  Min(alpha.water) = 8.95023e-23  Max(alpha.water) = 1
MULES: Solving for alpha.water
Phase-1 volume fraction = 0.25  Min(alpha.water) = 8.9694e-23  Max(alpha.water) = 1
DICPCG:  Solving for p_rgh, Initial residual = 0.132716, Final residual = 0.00661466, No Iterations 2
time step continuity errors : sum local = 7.93671e-05, global = -1.57983e-20, cumulative = 2.14247e-19
DICPCG:  Solving for p_rgh, Initial residual = 0.0105019, Final residual = 0.000435903, No Iterations 16
time step continuity errors : sum local = 5.26481e-06, global = 8.09335e-20, cumulative = 2.9518e-19
DICPCG:  Solving for p_rgh, Initial residual = 0.00196913, Final residual = 8.92974e-08, No Iterations 95
time step continuity errors : sum local = 1.07896e-09, global = 1.90196e-19, cumulative = 4.85377e-19
ExecutionTime = 16.68 s  ClockTime = 28 s

Courant Number mean: 0.0846337 max: 0.482573
Interface Courant Number mean: 0.0405291 max: 0.482573
deltaT = 0.00546875
Time = 3.94531

PIMPLE: iteration 1
MULES: Solving for alpha.water
Phase-1 volume fraction = 0.25  Min(alpha.water) = 8.98826e-23  Max(alpha.water) = 1
MULES: Solving for alpha.water
Phase-1 volume fraction = 0.25  Min(alpha.water) = 9.00714e-23  Max(alpha.water) = 1
DICPCG:  Solving for p_rgh, Initial residual = 0.121716, Final residual = 0.00534544, No Iterations 2
time step continuity errors : sum local = 6.48025e-05, global = 8.41529e-20, cumulative = 5.6953e-19
DICPCG:  Solving for p_rgh, Initial residual = 0.00961746, Final residual = 0.00042708, No Iterations 25
time step continuity errors : sum local = 5.41328e-06, global = 5.66323e-20, cumulative = 6.26162e-19
DICPCG:  Solving for p_rgh, Initial residual = 0.00190977, Final residual = 5.81401e-08, No Iterations 95
time step continuity errors : sum local = 7.12172e-10, global = 2.74493e-20, cumulative = 6.53611e-19
ExecutionTime = 16.7 s  ClockTime = 28 s

Courant Number mean: 0.0844559 max: 0.482818
Interface Courant Number mean: 0.0411087 max: 0.482818
deltaT = 0.00546875
Time = 3.95078

PIMPLE: iteration 1
MULES: Solving for alpha.water
Phase-1 volume fraction = 0.25  Min(alpha.water) = 9.03383e-23  Max(alpha.water) = 1
MULES: Solving for alpha.water
Phase-1 volume fraction = 0.25  Min(alpha.water) = 9.06058e-23  Max(alpha.water) = 1
DICPCG:  Solving for p_rgh, Initial residual = 0.11091, Final residual = 0.00540112, No Iterations 2
time step continuity errors : sum local = 6.68856e-05, global = 1.8765e-19, cumulative = 8.41261e-19
DICPCG:  Solving for p_rgh, Initial residual = 0.00977236, Final residual = 0.000447729, No Iterations 12
time step continuity errors : sum local = 5.6913e-06, global = 3.00761e-20, cumulative = 8.71337e-19
DICPCG:  Solving for p_rgh, Initial residual = 0.00189113, Final residual = 8.70176e-08, No Iterations 95
time step continuity errors : sum local = 1.09278e-09, global = -9.88167e-20, cumulative = 7.72521e-19
ExecutionTime = 16.72 s  ClockTime = 28 s

Courant Number mean: 0.0842508 max: 0.48301
Interface Courant Number mean: 0.0413056 max: 0.48301
deltaT = 0.00546875
Time = 3.95625

PIMPLE: iteration 1
MULES: Solving for alpha.water
Phase-1 volume fraction = 0.25  Min(alpha.water) = 9.09353e-23  Max(alpha.water) = 1
MULES: Solving for alpha.water
Phase-1 volume fraction = 0.25  Min(alpha.water) = 9.12656e-23  Max(alpha.water) = 1
DICPCG:  Solving for p_rgh, Initial residual = 0.11993, Final residual = 0.0052453, No Iterations 2
time step continuity errors : sum local = 6.55934e-05, global = -1.4023e-20, cumulative = 7.58498e-19
DICPCG:  Solving for p_rgh, Initial residual = 0.00990876, Final residual = 0.000467784, No Iterations 12
time step continuity errors : sum local = 5.85215e-06, global = -9.74183e-20, cumulative = 6.61079e-19
DICPCG:  Solving for p_rgh, Initial residual = 0.00195083, Final residual = 8.55493e-08, No Iterations 93
time step continuity errors : sum local = 1.06989e-09, global = 1.28053e-20, cumulative = 6.73885e-19
ExecutionTime = 16.74 s  ClockTime = 28 s

Courant Number mean: 0.0840227 max: 0.483296
Interface Courant Number mean: 0.0407259 max: 0.483296
deltaT = 0.00546875
Time = 3.96172

PIMPLE: iteration 1
MULES: Solving for alpha.water
Phase-1 volume fraction = 0.25  Min(alpha.water) = 9.16586e-23  Max(alpha.water) = 1
MULES: Solving for alpha.water
Phase-1 volume fraction = 0.25  Min(alpha.water) = 9.20527e-23  Max(alpha.water) = 1
DICPCG:  Solving for p_rgh, Initial residual = 0.123232, Final residual = 0.00433822, No Iterations 2
time step continuity errors : sum local = 5.37207e-05, global = -3.27609e-20, cumulative = 6.41124e-19
DICPCG:  Solving for p_rgh, Initial residual = 0.00890926, Final residual = 0.000392729, No Iterations 10
time step continuity errors : sum local = 4.92011e-06, global = -7.15878e-20, cumulative = 5.69536e-19
DICPCG:  Solving for p_rgh, Initial residual = 0.00176388, Final residual = 7.4063e-08, No Iterations 93
time step continuity errors : sum local = 9.11955e-10, global = 3.30424e-20, cumulative = 6.02578e-19
ExecutionTime = 16.78 s  ClockTime = 28 s

Courant Number mean: 0.083814 max: 0.483836
Interface Courant Number mean: 0.0408227 max: 0.483836
deltaT = 0.00546875
Time = 3.96719

PIMPLE: iteration 1
MULES: Solving for alpha.water
Phase-1 volume fraction = 0.25  Min(alpha.water) = 9.25231e-23  Max(alpha.water) = 1
MULES: Solving for alpha.water
Phase-1 volume fraction = 0.25  Min(alpha.water) = 9.29949e-23  Max(alpha.water) = 1
DICPCG:  Solving for p_rgh, Initial residual = 0.122337, Final residual = 0.00589992, No Iterations 3
time step continuity errors : sum local = 7.2371e-05, global = 1.27186e-19, cumulative = 7.29764e-19
DICPCG:  Solving for p_rgh, Initial residual = 0.0108076, Final residual = 0.000531711, No Iterations 15
time step continuity errors : sum local = 6.56852e-06, global = -3.24589e-22, cumulative = 7.2944e-19
DICPCG:  Solving for p_rgh, Initial residual = 0.00202527, Final residual = 9.04749e-08, No Iterations 82
time step continuity errors : sum local = 1.10992e-09, global = 9.6476e-20, cumulative = 8.25916e-19
ExecutionTime = 16.8 s  ClockTime = 28 s

Courant Number mean: 0.0837709 max: 0.487115
Interface Courant Number mean: 0.0410598 max: 0.487115
deltaT = 0.00546875
Time = 3.97266

PIMPLE: iteration 1
MULES: Solving for alpha.water
Phase-1 volume fraction = 0.25  Min(alpha.water) = 9.35305e-23  Max(alpha.water) = 1
MULES: Solving for alpha.water
Phase-1 volume fraction = 0.25  Min(alpha.water) = 9.40679e-23  Max(alpha.water) = 1
DICPCG:  Solving for p_rgh, Initial residual = 0.106327, Final residual = 0.00407959, No Iterations 3
time step continuity errors : sum local = 4.98186e-05, global = -1.51799e-19, cumulative = 6.74117e-19
DICPCG:  Solving for p_rgh, Initial residual = 0.00893486, Final residual = 0.000439091, No Iterations 15
time step continuity errors : sum local = 5.39867e-06, global = 1.72407e-20, cumulative = 6.91358e-19
DICPCG:  Solving for p_rgh, Initial residual = 0.00181333, Final residual = 9.35458e-08, No Iterations 95
time step continuity errors : sum local = 1.14289e-09, global = -6.00799e-20, cumulative = 6.31278e-19
ExecutionTime = 16.82 s  ClockTime = 28 s

Courant Number mean: 0.0838188 max: 0.493937
Interface Courant Number mean: 0.0408885 max: 0.493937
deltaT = 0.00546875
Time = 3.97812

PIMPLE: iteration 1
MULES: Solving for alpha.water
Phase-1 volume fraction = 0.25  Min(alpha.water) = 9.46532e-23  Max(alpha.water) = 1
MULES: Solving for alpha.water
Phase-1 volume fraction = 0.25  Min(alpha.water) = 9.52407e-23  Max(alpha.water) = 1
DICPCG:  Solving for p_rgh, Initial residual = 0.121304, Final residual = 0.00452901, No Iterations 2
time step continuity errors : sum local = 5.48632e-05, global = 1.64711e-19, cumulative = 7.95989e-19
DICPCG:  Solving for p_rgh, Initial residual = 0.00924992, Final residual = 0.000436821, No Iterations 13
time step continuity errors : sum local = 5.25847e-06, global = -9.28831e-21, cumulative = 7.86701e-19
DICPCG:  Solving for p_rgh, Initial residual = 0.00184058, Final residual = 7.22935e-08, No Iterations 93
time step continuity errors : sum local = 8.71109e-10, global = -6.25406e-20, cumulative = 7.2416e-19
ExecutionTime = 16.84 s  ClockTime = 28 s

Courant Number mean: 0.0838257 max: 0.495362
Interface Courant Number mean: 0.0406333 max: 0.495362
deltaT = 0.00546875
Time = 3.98359

PIMPLE: iteration 1
MULES: Solving for alpha.water
Phase-1 volume fraction = 0.25  Min(alpha.water) = 9.58762e-23  Max(alpha.water) = 1
MULES: Solving for alpha.water
Phase-1 volume fraction = 0.25  Min(alpha.water) = 9.65141e-23  Max(alpha.water) = 1
DICPCG:  Solving for p_rgh, Initial residual = 0.125729, Final residual = 0.00471046, No Iterations 3
time step continuity errors : sum local = 5.66215e-05, global = -1.13306e-19, cumulative = 6.10854e-19
DICPCG:  Solving for p_rgh, Initial residual = 0.00979705, Final residual = 0.000483302, No Iterations 23
time step continuity errors : sum local = 5.86775e-06, global = -4.08063e-20, cumulative = 5.70048e-19
DICPCG:  Solving for p_rgh, Initial residual = 0.00193559, Final residual = 9.13652e-08, No Iterations 95
time step continuity errors : sum local = 1.09868e-09, global = 1.45241e-19, cumulative = 7.15289e-19
ExecutionTime = 16.86 s  ClockTime = 28 s

Courant Number mean: 0.0838674 max: 0.490588
Interface Courant Number mean: 0.0408486 max: 0.490588
deltaT = 0.00546875
Time = 3.98906

PIMPLE: iteration 1
MULES: Solving for alpha.water
Phase-1 volume fraction = 0.25  Min(alpha.water) = 9.71947e-23  Max(alpha.water) = 1
MULES: Solving for alpha.water
Phase-1 volume fraction = 0.25  Min(alpha.water) = 9.78782e-23  Max(alpha.water) = 1
DICPCG:  Solving for p_rgh, Initial residual = 0.118104, Final residual = 0.00434197, No Iterations 2
time step continuity errors : sum local = 5.19866e-05, global = -1.046e-20, cumulative = 7.04829e-19
DICPCG:  Solving for p_rgh, Initial residual = 0.00928952, Final residual = 0.000452842, No Iterations 19
time step continuity errors : sum local = 5.4397e-06, global = -8.73786e-21, cumulative = 6.96091e-19
DICPCG:  Solving for p_rgh, Initial residual = 0.00184201, Final residual = 9.18212e-08, No Iterations 94
time step continuity errors : sum local = 1.09892e-09, global = 3.94103e-20, cumulative = 7.35502e-19
ExecutionTime = 16.88 s  ClockTime = 28 s

Courant Number mean: 0.0839724 max: 0.487325
Interface Courant Number mean: 0.0411604 max: 0.487325
deltaT = 0.00546875
Time = 3.99453

PIMPLE: iteration 1
MULES: Solving for alpha.water
Phase-1 volume fraction = 0.25  Min(alpha.water) = 9.85968e-23  Max(alpha.water) = 1
MULES: Solving for alpha.water
Phase-1 volume fraction = 0.25  Min(alpha.water) = 9.93185e-23  Max(alpha.water) = 1
DICPCG:  Solving for p_rgh, Initial residual = 0.127573, Final residual = 0.00598265, No Iterations 2
time step continuity errors : sum local = 7.16812e-05, global = -1.63293e-19, cumulative = 5.72209e-19
DICPCG:  Solving for p_rgh, Initial residual = 0.0102933, Final residual = 0.000477921, No Iterations 19
time step continuity errors : sum local = 5.84478e-06, global = 1.11871e-19, cumulative = 6.8408e-19
DICPCG:  Solving for p_rgh, Initial residual = 0.00199185, Final residual = 9.18114e-08, No Iterations 96
time step continuity errors : sum local = 1.10575e-09, global = -4.42735e-20, cumulative = 6.39806e-19
ExecutionTime = 16.9 s  ClockTime = 28 s

Courant Number mean: 0.0838815 max: 0.481996
Interface Courant Number mean: 0.0411985 max: 0.481996
deltaT = 0.00546875
Time = 4

PIMPLE: iteration 1
MULES: Solving for alpha.water
Phase-1 volume fraction = 0.25  Min(alpha.water) = 1.00057e-22  Max(alpha.water) = 1
MULES: Solving for alpha.water
Phase-1 volume fraction = 0.25  Min(alpha.water) = 1.00799e-22  Max(alpha.water) = 1
DICPCG:  Solving for p_rgh, Initial residual = 0.117655, Final residual = 0.0043597, No Iterations 2
time step continuity errors : sum local = 5.16527e-05, global = 1.46065e-20, cumulative = 6.54412e-19
DICPCG:  Solving for p_rgh, Initial residual = 0.00919419, Final residual = 0.000430272, No Iterations 18
time step continuity errors : sum local = 5.11811e-06, global = -6.50418e-20, cumulative = 5.89371e-19
DICPCG:  Solving for p_rgh, Initial residual = 0.00181749, Final residual = 7.85846e-08, No Iterations 95
time step continuity errors : sum local = 9.18045e-10, global = -4.95289e-20, cumulative = 5.39842e-19
ExecutionTime = 16.94 s  ClockTime = 28 s

End

