/*---------------------------------------------------------------------------*\
| =========                 |                                                 |
| \\      /  F ield         | OpenFOAM: The Open Source CFD Toolbox           |
|  \\    /   O peration     | Version:  v1606+                                |
|   \\  /    A nd           | Web:      www.OpenFOAM.com                      |
|    \\/     M anipulation  |                                                 |
\*---------------------------------------------------------------------------*/
Build  : v1606+
Exec   : reconstructPar
Date   : Oct 20 2016
Time   : 06:36:40
Host   : "79ba4d3dd43f"
PID    : 1071
Case   : /openfoam/pimpleDyMFoam/mixerVesselAMI2D
nProcs : 1
sigFpe : Enabling floating point exception trapping (FOAM_SIGFPE).
fileModificationChecking : Monitoring run-time modified files using timeStampMaster
allowSystemOperations : Allowing user-supplied system call operations

// * * * * * * * * * * * * * * * * * * * * * * * * * * * * * * * * * * * * * //
Create time



Reconstructing fields for mesh region0

Time = 0.1

Reconstructing FV fields

    Reconstructing volScalarFields

        p

    Reconstructing volVectorFields

        U

    Reconstructing surfaceScalarFields

        phi

    Reconstructing surfaceVectorFields

        Uf

Reconstructing point fields

No point fields

No lagrangian fields

Reconstructing sets:
Time = 0.2

Reconstructing FV fields

    Reconstructing volScalarFields

        p

    Reconstructing volVectorFields

        U

    Reconstructing surfaceScalarFields

        phi

    Reconstructing surfaceVectorFields

        Uf

Reconstructing point fields

No point fields

No lagrangian fields

Reconstructing sets:
Time = 0.3

Reconstructing FV fields

    Reconstructing volScalarFields

        p

    Reconstructing volVectorFields

        U

    Reconstructing surfaceScalarFields

        phi

    Reconstructing surfaceVectorFields

        Uf

Reconstructing point fields

No point fields

No lagrangian fields

Reconstructing sets:
Time = 0.4

Reconstructing FV fields

    Reconstructing volScalarFields

        p

    Reconstructing volVectorFields

        U

    Reconstructing surfaceScalarFields

        phi

    Reconstructing surfaceVectorFields

        Uf

Reconstructing point fields

No point fields

No lagrangian fields

Reconstructing sets:
Time = 0.5

Reconstructing FV fields

    Reconstructing volScalarFields

        p

    Reconstructing volVectorFields

        U

    Reconstructing surfaceScalarFields

        phi

    Reconstructing surfaceVectorFields

        Uf

Reconstructing point fields

No point fields

No lagrangian fields

Reconstructing sets:
Time = 0.6

Reconstructing FV fields

    Reconstructing volScalarFields

        p

    Reconstructing volVectorFields

        U

    Reconstructing surfaceScalarFields

        phi

    Reconstructing surfaceVectorFields

        Uf

Reconstructing point fields

No point fields

No lagrangian fields

Reconstructing sets:
Time = 0.7

Reconstructing FV fields

    Reconstructing volScalarFields

        p

    Reconstructing volVectorFields

        U

    Reconstructing surfaceScalarFields

        phi

    Reconstructing surfaceVectorFields

        Uf

Reconstructing point fields

No point fields

No lagrangian fields

Reconstructing sets:
Time = 0.8

Reconstructing FV fields

    Reconstructing volScalarFields

        p

    Reconstructing volVectorFields

        U

    Reconstructing surfaceScalarFields

        phi

    Reconstructing surfaceVectorFields

        Uf

Reconstructing point fields

No point fields

No lagrangian fields

Reconstructing sets:
Time = 0.9

Reconstructing FV fields

    Reconstructing volScalarFields

        p

    Reconstructing volVectorFields

        U

    Reconstructing surfaceScalarFields

        phi

    Reconstructing surfaceVectorFields

        Uf

Reconstructing point fields

No point fields

No lagrangian fields

Reconstructing sets:
Time = 1

Reconstructing FV fields

    Reconstructing volScalarFields

        p

    Reconstructing volVectorFields

        U

    Reconstructing surfaceScalarFields

        phi

    Reconstructing surfaceVectorFields

        Uf

Reconstructing point fields

No point fields

No lagrangian fields

Reconstructing sets:
Time = 1.1

Reconstructing FV fields

    Reconstructing volScalarFields

        p

    Reconstructing volVectorFields

        U

    Reconstructing surfaceScalarFields

        phi

    Reconstructing surfaceVectorFields

        Uf

Reconstructing point fields

No point fields

No lagrangian fields

Reconstructing sets:
Time = 1.2

Reconstructing FV fields

    Reconstructing volScalarFields

        p

    Reconstructing volVectorFields

        U

    Reconstructing surfaceScalarFields

        phi

    Reconstructing surfaceVectorFields

        Uf

Reconstructing point fields

No point fields

No lagrangian fields

Reconstructing sets:
Time = 1.3

Reconstructing FV fields

    Reconstructing volScalarFields

        p

    Reconstructing volVectorFields

        U

    Reconstructing surfaceScalarFields

        phi

    Reconstructing surfaceVectorFields

        Uf

Reconstructing point fields

No point fields

No lagrangian fields

Reconstructing sets:
Time = 1.4

Reconstructing FV fields

    Reconstructing volScalarFields

        p

    Reconstructing volVectorFields

        U

    Reconstructing surfaceScalarFields

        phi

    Reconstructing surfaceVectorFields

        Uf

Reconstructing point fields

No point fields

No lagrangian fields

Reconstructing sets:
Time = 1.5

Reconstructing FV fields

    Reconstructing volScalarFields

        p

    Reconstructing volVectorFields

        U

    Reconstructing surfaceScalarFields

        phi

    Reconstructing surfaceVectorFields

        Uf

Reconstructing point fields

No point fields

No lagrangian fields

Reconstructing sets:
Time = 1.6

Reconstructing FV fields

    Reconstructing volScalarFields

        p

    Reconstructing volVectorFields

        U

    Reconstructing surfaceScalarFields

        phi

    Reconstructing surfaceVectorFields

        Uf

Reconstructing point fields

No point fields

No lagrangian fields

Reconstructing sets:
Time = 1.7

Reconstructing FV fields

    Reconstructing volScalarFields

        p

    Reconstructing volVectorFields

        U

    Reconstructing surfaceScalarFields

        phi

    Reconstructing surfaceVectorFields

        Uf

Reconstructing point fields

No point fields

No lagrangian fields

Reconstructing sets:
Time = 1.8

Reconstructing FV fields

    Reconstructing volScalarFields

        p

    Reconstructing volVectorFields

        U

    Reconstructing surfaceScalarFields

        phi

    Reconstructing surfaceVectorFields

        Uf

Reconstructing point fields

No point fields

No lagrangian fields

Reconstructing sets:
Time = 1.9

Reconstructing FV fields

    Reconstructing volScalarFields

        p

    Reconstructing volVectorFields

        U

    Reconstructing surfaceScalarFields

        phi

    Reconstructing surfaceVectorFields

        Uf

Reconstructing point fields

No point fields

No lagrangian fields

Reconstructing sets:
Time = 2

Reconstructing FV fields

    Reconstructing volScalarFields

        p

    Reconstructing volVectorFields

        U

    Reconstructing surfaceScalarFields

        phi

    Reconstructing surfaceVectorFields

        Uf

Reconstructing point fields

No point fields

No lagrangian fields

Reconstructing sets:

End

