/*---------------------------------------------------------------------------*\
| =========                 |                                                 |
| \\      /  F ield         | OpenFOAM: The Open Source CFD Toolbox           |
|  \\    /   O peration     | Version:  v1606+                                |
|   \\  /    A nd           | Web:      www.OpenFOAM.com                      |
|    \\/     M anipulation  |                                                 |
\*---------------------------------------------------------------------------*/
Build  : v1606+
Exec   : pimpleDyMFoam -parallel
Date   : Oct 20 2016
Time   : 06:35:54
Host   : "79ba4d3dd43f"
PID    : 1063
Case   : /openfoam/pimpleDyMFoam/mixerVesselAMI2D
nProcs : 4
Slaves : 
3
(
"79ba4d3dd43f.1064"
"79ba4d3dd43f.1065"
"79ba4d3dd43f.1066"
)

Pstream initialized with:
    floatTransfer      : 0
    nProcsSimpleSum    : 0
    commsType          : nonBlocking
    polling iterations : 0
sigFpe : Enabling floating point exception trapping (FOAM_SIGFPE).
fileModificationChecking : Monitoring run-time modified files using timeStampMaster
allowSystemOperations : Allowing user-supplied system call operations

// * * * * * * * * * * * * * * * * * * * * * * * * * * * * * * * * * * * * * //
Create time

Create mesh for time = 0

Selecting dynamicFvMesh solidBodyMotionFvMesh
Selecting solid-body motion function rotatingMotion
Applying solid body motion to cellZone rotor

PIMPLE: no residual control data found. Calculations will employ 2 corrector loops

Reading field p

Reading field U

Reading/calculating face flux field phi

AMI: Creating addressing and weights between 96 source faces and 96 target faces
AMI: Patch source sum(weights) min/max/average = 1, 1, 1
AMI: Patch target sum(weights) min/max/average = 1, 1, 1
Selecting incompressible transport model Newtonian
Selecting turbulence model type laminar
Reading/calculating face velocity Uf

No MRF models present

No finite volume options present

Courant Number mean: 0 max: 0

Starting time loop

Courant Number mean: 0 max: 0
deltaT = 0.00119048
Time = 0.00119048

AMI: Creating addressing and weights between 96 source faces and 96 target faces
AMI: Patch source sum(weights) min/max/average = 1.00011, 1.00011, 1.00011
AMI: Patch target sum(weights) min/max/average = 1.00011, 1.00011, 1.00011
GAMG:  Solving for pcorr, Initial residual = 1, Final residual = 0.0123634, No Iterations 6
time step continuity errors : sum local = 0.000148388, global = 9.00493e-11, cumulative = 9.00493e-11
PIMPLE: iteration 1
smoothSolver:  Solving for Ux, Initial residual = 1, Final residual = 0.00254423, No Iterations 2
smoothSolver:  Solving for Uy, Initial residual = 1, Final residual = 0.00173457, No Iterations 2
GAMG:  Solving for p, Initial residual = 1, Final residual = 0.00907884, No Iterations 6
time step continuity errors : sum local = 1.9162e-05, global = -3.19403e-08, cumulative = -3.18503e-08
PIMPLE: iteration 2
smoothSolver:  Solving for Ux, Initial residual = 0.041555, Final residual = 5.22017e-07, No Iterations 4
smoothSolver:  Solving for Uy, Initial residual = 0.0417188, Final residual = 2.07676e-07, No Iterations 4
GAMG:  Solving for p, Initial residual = 0.104781, Final residual = 8.37319e-07, No Iterations 17
time step continuity errors : sum local = 6.95266e-09, global = 2.94564e-09, cumulative = -2.89047e-08
ExecutionTime = 0.11 s  ClockTime = 1 s

Courant Number mean: 0.033523 max: 0.339211
deltaT = 0.00135356
Time = 0.00254403

AMI: Creating addressing and weights between 96 source faces and 96 target faces
AMI: Patch source sum(weights) min/max/average = 1.0002, 1.0002, 1.0002
AMI: Patch target sum(weights) min/max/average = 1.0002, 1.0002, 1.0002
GAMG:  Solving for pcorr, Initial residual = 1, Final residual = 0.0157472, No Iterations 4
time step continuity errors : sum local = 1.75989e-06, global = 3.69408e-09, cumulative = -2.52106e-08
PIMPLE: iteration 1
smoothSolver:  Solving for Ux, Initial residual = 0.358547, Final residual = 0.000401777, No Iterations 2
smoothSolver:  Solving for Uy, Initial residual = 0.358556, Final residual = 0.000367813, No Iterations 2
GAMG:  Solving for p, Initial residual = 0.730128, Final residual = 0.00408527, No Iterations 7
time step continuity errors : sum local = 1.69259e-05, global = 6.79824e-09, cumulative = -1.84123e-08
PIMPLE: iteration 2
smoothSolver:  Solving for Ux, Initial residual = 0.0492589, Final residual = 3.76374e-07, No Iterations 4
smoothSolver:  Solving for Uy, Initial residual = 0.0492339, Final residual = 2.24984e-07, No Iterations 4
GAMG:  Solving for p, Initial residual = 0.334613, Final residual = 3.4888e-07, No Iterations 14
time step continuity errors : sum local = 7.06356e-09, global = 6.54728e-09, cumulative = -1.18651e-08
ExecutionTime = 0.14 s  ClockTime = 1 s

Courant Number mean: 0.0379671 max: 0.378425
deltaT = 0.00152275
Time = 0.00406678

AMI: Creating addressing and weights between 96 source faces and 96 target faces
AMI: Patch source sum(weights) min/max/average = 1.00025, 1.00025, 1.00025
AMI: Patch target sum(weights) min/max/average = 1.00025, 1.00025, 1.00025
GAMG:  Solving for pcorr, Initial residual = 1, Final residual = 0.00994728, No Iterations 6
time step continuity errors : sum local = 2.15701e-06, global = 1.22918e-08, cumulative = 4.2671e-10
PIMPLE: iteration 1
smoothSolver:  Solving for Ux, Initial residual = 0.0286986, Final residual = 5.71101e-05, No Iterations 2
smoothSolver:  Solving for Uy, Initial residual = 0.0285569, Final residual = 5.29911e-05, No Iterations 2
GAMG:  Solving for p, Initial residual = 0.191154, Final residual = 0.00128682, No Iterations 4
time step continuity errors : sum local = 1.97962e-06, global = 9.65629e-09, cumulative = 1.0083e-08
PIMPLE: iteration 2
smoothSolver:  Solving for Ux, Initial residual = 0.00151512, Final residual = 2.99993e-07, No Iterations 3
smoothSolver:  Solving for Uy, Initial residual = 0.00151335, Final residual = 2.33824e-07, No Iterations 3
GAMG:  Solving for p, Initial residual = 0.0339087, Final residual = 7.21611e-07, No Iterations 14
time step continuity errors : sum local = 9.80026e-09, global = 8.78353e-09, cumulative = 1.88665e-08
ExecutionTime = 0.18 s  ClockTime = 1 s

Courant Number mean: 0.0425034 max: 0.414706
deltaT = 0.00168304
Time = 0.00574982

AMI: Creating addressing and weights between 96 source faces and 96 target faces
AMI: Patch source sum(weights) min/max/average = 1.00026, 1.00026, 1.00026
AMI: Patch target sum(weights) min/max/average = 1.00026, 1.00026, 1.00026
GAMG:  Solving for pcorr, Initial residual = 1, Final residual = 0.0179637, No Iterations 4
time step continuity errors : sum local = 3.02507e-06, global = 1.89122e-08, cumulative = 3.77788e-08
PIMPLE: iteration 1
smoothSolver:  Solving for Ux, Initial residual = 0.0224008, Final residual = 4.72191e-05, No Iterations 2
smoothSolver:  Solving for Uy, Initial residual = 0.0224075, Final residual = 4.92848e-05, No Iterations 2
GAMG:  Solving for p, Initial residual = 0.111084, Final residual = 0.000422967, No Iterations 4
time step continuity errors : sum local = 6.65207e-07, global = 1.04387e-08, cumulative = 4.82175e-08
PIMPLE: iteration 2
smoothSolver:  Solving for Ux, Initial residual = 0.00112486, Final residual = 2.91993e-07, No Iterations 3
smoothSolver:  Solving for Uy, Initial residual = 0.0011319, Final residual = 2.46985e-07, No Iterations 3
GAMG:  Solving for p, Initial residual = 0.0325049, Final residual = 8.96155e-07, No Iterations 8
time step continuity errors : sum local = 9.63815e-09, global = 8.33374e-09, cumulative = 5.65512e-08
ExecutionTime = 0.21 s  ClockTime = 1 s

Courant Number mean: 0.0467333 max: 0.447733
deltaT = 0.00184804
Time = 0.00759786

AMI: Creating addressing and weights between 96 source faces and 96 target faces
AMI: Patch source sum(weights) min/max/average = 1.00021, 1.00021, 1.00021
AMI: Patch target sum(weights) min/max/average = 1.00021, 1.00021, 1.00021
GAMG:  Solving for pcorr, Initial residual = 1, Final residual = 0.0199535, No Iterations 5
time step continuity errors : sum local = 3.79004e-06, global = 2.44312e-08, cumulative = 8.09824e-08
PIMPLE: iteration 1
smoothSolver:  Solving for Ux, Initial residual = 0.0217414, Final residual = 4.51253e-05, No Iterations 2
smoothSolver:  Solving for Uy, Initial residual = 0.0217453, Final residual = 4.85155e-05, No Iterations 2
GAMG:  Solving for p, Initial residual = 0.0910769, Final residual = 0.00068692, No Iterations 3
time step continuity errors : sum local = 1.08851e-06, global = 7.7406e-09, cumulative = 8.8723e-08
PIMPLE: iteration 2
smoothSolver:  Solving for Ux, Initial residual = 0.00112896, Final residual = 3.16381e-07, No Iterations 3
smoothSolver:  Solving for Uy, Initial residual = 0.0011349, Final residual = 3.01611e-07, No Iterations 3
GAMG:  Solving for p, Initial residual = 0.0342643, Final residual = 8.80315e-07, No Iterations 12
time step continuity errors : sum local = 7.23216e-09, global = 5.99364e-09, cumulative = 9.47166e-08
ExecutionTime = 0.24 s  ClockTime = 1 s

Courant Number mean: 0.0510358 max: 0.480735
deltaT = 0.00188576
Time = 0.00948362

AMI: Creating addressing and weights between 96 source faces and 96 target faces
AMI: Patch source sum(weights) min/max/average = 1.00009, 1.00009, 1.00009
AMI: Patch target sum(weights) min/max/average = 1.00009, 1.00009, 1.00009
GAMG:  Solving for pcorr, Initial residual = 1, Final residual = 0.0179503, No Iterations 4
time step continuity errors : sum local = 4.02215e-06, global = 2.64713e-08, cumulative = 1.21188e-07
PIMPLE: iteration 1
smoothSolver:  Solving for Ux, Initial residual = 0.0204903, Final residual = 3.83157e-05, No Iterations 2
smoothSolver:  Solving for Uy, Initial residual = 0.0204901, Final residual = 4.11161e-05, No Iterations 2
GAMG:  Solving for p, Initial residual = 0.0752074, Final residual = 0.000438285, No Iterations 5
time step continuity errors : sum local = 6.75811e-07, global = 7.59154e-10, cumulative = 1.21947e-07
PIMPLE: iteration 2
smoothSolver:  Solving for Ux, Initial residual = 0.00107371, Final residual = 3.23036e-07, No Iterations 3
smoothSolver:  Solving for Uy, Initial residual = 0.00107779, Final residual = 3.34153e-07, No Iterations 3
GAMG:  Solving for p, Initial residual = 0.0326785, Final residual = 9.93692e-07, No Iterations 8
time step continuity errors : sum local = 3.10582e-09, global = 1.59893e-09, cumulative = 1.23546e-07
ExecutionTime = 0.27 s  ClockTime = 1 s

Courant Number mean: 0.0518753 max: 0.479397
deltaT = 0.00192588
Time = 0.0114095

AMI: Creating addressing and weights between 96 source faces and 96 target faces
AMI: Patch source sum(weights) min/max/average = 1.00009, 1.00009, 1.00009
AMI: Patch target sum(weights) min/max/average = 1.00009, 1.00009, 1.00009
GAMG:  Solving for pcorr, Initial residual = 1, Final residual = 0.0186399, No Iterations 5
time step continuity errors : sum local = 4.31471e-06, global = 2.76537e-08, cumulative = 1.512e-07
PIMPLE: iteration 1
smoothSolver:  Solving for Ux, Initial residual = 0.0207968, Final residual = 3.82192e-05, No Iterations 2
smoothSolver:  Solving for Uy, Initial residual = 0.0208023, Final residual = 3.81799e-05, No Iterations 2
GAMG:  Solving for p, Initial residual = 0.0673207, Final residual = 0.000391932, No Iterations 3
time step continuity errors : sum local = 6.05321e-07, global = 3.88778e-09, cumulative = 1.55087e-07
PIMPLE: iteration 2
smoothSolver:  Solving for Ux, Initial residual = 0.000961642, Final residual = 3.02457e-07, No Iterations 3
smoothSolver:  Solving for Uy, Initial residual = 0.000966162, Final residual = 3.13158e-07, No Iterations 3
GAMG:  Solving for p, Initial residual = 0.0267178, Final residual = 7.66602e-07, No Iterations 12
time step continuity errors : sum local = 5.83874e-09, global = 4.62946e-09, cumulative = 1.59717e-07
ExecutionTime = 0.31 s  ClockTime = 1 s

Courant Number mean: 0.0529319 max: 0.478551
deltaT = 0.00196868
Time = 0.0133782

AMI: Creating addressing and weights between 96 source faces and 96 target faces
AMI: Patch source sum(weights) min/max/average = 1.00022, 1.00022, 1.00022
AMI: Patch target sum(weights) min/max/average = 1.00022, 1.00022, 1.00022
GAMG:  Solving for pcorr, Initial residual = 1, Final residual = 0.0175974, No Iterations 4
time step continuity errors : sum local = 4.64638e-06, global = 3.64152e-08, cumulative = 1.96132e-07
PIMPLE: iteration 1
smoothSolver:  Solving for Ux, Initial residual = 0.0201621, Final residual = 3.78922e-05, No Iterations 2
smoothSolver:  Solving for Uy, Initial residual = 0.0201629, Final residual = 3.68534e-05, No Iterations 2
GAMG:  Solving for p, Initial residual = 0.0964769, Final residual = 0.000567365, No Iterations 3
time step continuity errors : sum local = 8.48023e-07, global = 1.21535e-08, cumulative = 2.08286e-07
PIMPLE: iteration 2
smoothSolver:  Solving for Ux, Initial residual = 0.000958691, Final residual = 3.09723e-07, No Iterations 3
smoothSolver:  Solving for Uy, Initial residual = 0.000964474, Final residual = 3.24409e-07, No Iterations 3
GAMG:  Solving for p, Initial residual = 0.029732, Final residual = 6.91149e-07, No Iterations 9
time step continuity errors : sum local = 1.2938e-08, global = 1.19101e-08, cumulative = 2.20196e-07
ExecutionTime = 0.33 s  ClockTime = 1 s

Courant Number mean: 0.0540928 max: 0.477406
deltaT = 0.00201446
Time = 0.0153926

AMI: Creating addressing and weights between 96 source faces and 96 target faces
AMI: Patch source sum(weights) min/max/average = 1.00027, 1.00027, 1.00027
AMI: Patch target sum(weights) min/max/average = 1.00027, 1.00027, 1.00027
GAMG:  Solving for pcorr, Initial residual = 1, Final residual = 0.0184917, No Iterations 5
time step continuity errors : sum local = 5.0138e-06, global = 4.92925e-08, cumulative = 2.69488e-07
PIMPLE: iteration 1
smoothSolver:  Solving for Ux, Initial residual = 0.0197964, Final residual = 3.80859e-05, No Iterations 2
smoothSolver:  Solving for Uy, Initial residual = 0.0197974, Final residual = 3.70797e-05, No Iterations 2
GAMG:  Solving for p, Initial residual = 0.102995, Final residual = 0.000732688, No Iterations 3
time step continuity errors : sum local = 1.02556e-06, global = 1.63912e-08, cumulative = 2.8588e-07
PIMPLE: iteration 2
smoothSolver:  Solving for Ux, Initial residual = 0.00101517, Final residual = 3.03418e-07, No Iterations 3
smoothSolver:  Solving for Uy, Initial residual = 0.00102112, Final residual = 3.13643e-07, No Iterations 3
GAMG:  Solving for p, Initial residual = 0.0325964, Final residual = 9.91671e-07, No Iterations 14
time step continuity errors : sum local = 1.45472e-08, global = 1.3332e-08, cumulative = 2.99211e-07
ExecutionTime = 0.37 s  ClockTime = 1 s

Courant Number mean: 0.0553767 max: 0.476128
deltaT = 0.00211518
Time = 0.0175078

AMI: Creating addressing and weights between 96 source faces and 96 target faces
AMI: Patch source sum(weights) min/max/average = 1.00023, 1.00023, 1.00023
AMI: Patch target sum(weights) min/max/average = 1.00023, 1.00023, 1.00023
GAMG:  Solving for pcorr, Initial residual = 1, Final residual = 0.0172611, No Iterations 4
time step continuity errors : sum local = 5.65432e-06, global = 5.81878e-08, cumulative = 3.57399e-07
PIMPLE: iteration 1
smoothSolver:  Solving for Ux, Initial residual = 0.0199129, Final residual = 4.14481e-05, No Iterations 2
smoothSolver:  Solving for Uy, Initial residual = 0.019908, Final residual = 4.12128e-05, No Iterations 2
GAMG:  Solving for p, Initial residual = 0.0772054, Final residual = 0.000471746, No Iterations 4
time step continuity errors : sum local = 6.70286e-07, global = 1.30405e-08, cumulative = 3.7044e-07
PIMPLE: iteration 2
smoothSolver:  Solving for Ux, Initial residual = 0.000996129, Final residual = 3.05821e-07, No Iterations 3
smoothSolver:  Solving for Uy, Initial residual = 0.00100349, Final residual = 3.19064e-07, No Iterations 3
GAMG:  Solving for p, Initial residual = 0.0303953, Final residual = 9.08035e-07, No Iterations 12
time step continuity errors : sum local = 1.17033e-08, global = 1.05489e-08, cumulative = 3.80989e-07
ExecutionTime = 0.41 s  ClockTime = 1 s

Courant Number mean: 0.0581778 max: 0.487184
deltaT = 0.00211518
Time = 0.019623

AMI: Creating addressing and weights between 96 source faces and 96 target faces
AMI: Patch source sum(weights) min/max/average = 1.00011, 1.00011, 1.00011
AMI: Patch target sum(weights) min/max/average = 1.00011, 1.00011, 1.00011
GAMG:  Solving for pcorr, Initial residual = 1, Final residual = 0.0103989, No Iterations 6
time step continuity errors : sum local = 5.26725e-06, global = 5.72637e-08, cumulative = 4.38252e-07
PIMPLE: iteration 1
smoothSolver:  Solving for Ux, Initial residual = 0.0192897, Final residual = 3.99225e-05, No Iterations 2
smoothSolver:  Solving for Uy, Initial residual = 0.0192862, Final residual = 4.03559e-05, No Iterations 2
GAMG:  Solving for p, Initial residual = 0.0598644, Final residual = 0.00040883, No Iterations 3
time step continuity errors : sum local = 5.45798e-07, global = 4.15418e-09, cumulative = 4.42407e-07
PIMPLE: iteration 2
smoothSolver:  Solving for Ux, Initial residual = 0.0008916, Final residual = 2.89451e-07, No Iterations 3
smoothSolver:  Solving for Uy, Initial residual = 0.000899017, Final residual = 2.98183e-07, No Iterations 3
GAMG:  Solving for p, Initial residual = 0.0307403, Final residual = 8.16312e-07, No Iterations 13
time step continuity errors : sum local = 5.69348e-09, global = 4.58244e-09, cumulative = 4.46989e-07
ExecutionTime = 0.44 s  ClockTime = 1 s

Courant Number mean: 0.058239 max: 0.474609
deltaT = 0.00217235
Time = 0.0217954

AMI: Creating addressing and weights between 96 source faces and 96 target faces
AMI: Patch source sum(weights) min/max/average = 1.00009, 1.00009, 1.00009
AMI: Patch target sum(weights) min/max/average = 1.00009, 1.00009, 1.00009
GAMG:  Solving for pcorr, Initial residual = 1, Final residual = 0.0156301, No Iterations 5
time step continuity errors : sum local = 6.07438e-06, global = 5.65326e-08, cumulative = 5.03522e-07
PIMPLE: iteration 1
smoothSolver:  Solving for Ux, Initial residual = 0.0194591, Final residual = 4.11543e-05, No Iterations 2
smoothSolver:  Solving for Uy, Initial residual = 0.019455, Final residual = 4.18686e-05, No Iterations 2
GAMG:  Solving for p, Initial residual = 0.0649133, Final residual = 0.000346301, No Iterations 3
time step continuity errors : sum local = 4.66071e-07, global = 6.33339e-09, cumulative = 5.09855e-07
PIMPLE: iteration 2
smoothSolver:  Solving for Ux, Initial residual = 0.000876761, Final residual = 3.08164e-07, No Iterations 3
smoothSolver:  Solving for Uy, Initial residual = 0.000883257, Final residual = 3.15061e-07, No Iterations 3
GAMG:  Solving for p, Initial residual = 0.0310547, Final residual = 7.55902e-07, No Iterations 12
time step continuity errors : sum local = 7.13601e-09, global = 6.20495e-09, cumulative = 5.1606e-07
ExecutionTime = 0.48 s  ClockTime = 1 s

Courant Number mean: 0.0598806 max: 0.474065
deltaT = 0.00223442
Time = 0.0240298

AMI: Creating addressing and weights between 96 source faces and 96 target faces
AMI: Patch source sum(weights) min/max/average = 1.00023, 1.00023, 1.00023
AMI: Patch target sum(weights) min/max/average = 1.00023, 1.00023, 1.00023
GAMG:  Solving for pcorr, Initial residual = 1, Final residual = 0.0169792, No Iterations 4
time step continuity errors : sum local = 6.80028e-06, global = 6.39275e-08, cumulative = 5.79987e-07
PIMPLE: iteration 1
smoothSolver:  Solving for Ux, Initial residual = 0.0193328, Final residual = 4.2303e-05, No Iterations 2
smoothSolver:  Solving for Uy, Initial residual = 0.0193273, Final residual = 4.30387e-05, No Iterations 2
GAMG:  Solving for p, Initial residual = 0.0689498, Final residual = 0.000404981, No Iterations 3
time step continuity errors : sum local = 5.78379e-07, global = 2.07753e-08, cumulative = 6.00763e-07
PIMPLE: iteration 2
smoothSolver:  Solving for Ux, Initial residual = 0.000847569, Final residual = 3.43356e-07, No Iterations 3
smoothSolver:  Solving for Uy, Initial residual = 0.000854743, Final residual = 3.50595e-07, No Iterations 3
GAMG:  Solving for p, Initial residual = 0.0318015, Final residual = 5.9971e-07, No Iterations 10
time step continuity errors : sum local = 1.78213e-08, global = 1.6941e-08, cumulative = 6.17704e-07
ExecutionTime = 0.51 s  ClockTime = 1 s

Courant Number mean: 0.0616831 max: 0.473367
deltaT = 0.00230213
Time = 0.0263319

AMI: Creating addressing and weights between 96 source faces and 96 target faces
AMI: Patch source sum(weights) min/max/average = 1.00027, 1.00027, 1.00027
AMI: Patch target sum(weights) min/max/average = 1.00027, 1.00027, 1.00027
GAMG:  Solving for pcorr, Initial residual = 1, Final residual = 0.0173652, No Iterations 5
time step continuity errors : sum local = 7.33599e-06, global = 7.95774e-08, cumulative = 6.97281e-07
PIMPLE: iteration 1
smoothSolver:  Solving for Ux, Initial residual = 0.0193232, Final residual = 4.49593e-05, No Iterations 2
smoothSolver:  Solving for Uy, Initial residual = 0.0193219, Final residual = 4.55715e-05, No Iterations 2
GAMG:  Solving for p, Initial residual = 0.0636488, Final residual = 0.000451103, No Iterations 3
time step continuity errors : sum local = 6.57307e-07, global = 2.05149e-08, cumulative = 7.17796e-07
PIMPLE: iteration 2
smoothSolver:  Solving for Ux, Initial residual = 0.000846171, Final residual = 3.79413e-07, No Iterations 3
smoothSolver:  Solving for Uy, Initial residual = 0.0008521, Final residual = 3.85113e-07, No Iterations 3
GAMG:  Solving for p, Initial residual = 0.0322778, Final residual = 9.90206e-07, No Iterations 13
time step continuity errors : sum local = 1.62118e-08, global = 1.47507e-08, cumulative = 7.32547e-07
ExecutionTime = 0.54 s  ClockTime = 2 s

Courant Number mean: 0.0636879 max: 0.473254
deltaT = 0.00237639
Time = 0.0287083

AMI: Creating addressing and weights between 96 source faces and 96 target faces
AMI: Patch source sum(weights) min/max/average = 1.0002, 1.0002, 1.0002
AMI: Patch target sum(weights) min/max/average = 1.0002, 1.0002, 1.0002
GAMG:  Solving for pcorr, Initial residual = 1, Final residual = 0.0159187, No Iterations 4
time step continuity errors : sum local = 7.91693e-06, global = 7.97241e-08, cumulative = 8.12271e-07
PIMPLE: iteration 1
smoothSolver:  Solving for Ux, Initial residual = 0.0196107, Final residual = 4.97373e-05, No Iterations 2
smoothSolver:  Solving for Uy, Initial residual = 0.01961, Final residual = 5.02074e-05, No Iterations 2
GAMG:  Solving for p, Initial residual = 0.0673053, Final residual = 0.000387232, No Iterations 4
time step continuity errors : sum local = 5.74124e-07, global = 1.06452e-08, cumulative = 8.22916e-07
PIMPLE: iteration 2
smoothSolver:  Solving for Ux, Initial residual = 0.000878579, Final residual = 4.28489e-07, No Iterations 3
smoothSolver:  Solving for Uy, Initial residual = 0.000884798, Final residual = 4.34143e-07, No Iterations 3
GAMG:  Solving for p, Initial residual = 0.0331194, Final residual = 7.55434e-07, No Iterations 10
time step continuity errors : sum local = 1.36419e-08, global = 1.25185e-08, cumulative = 8.35435e-07
ExecutionTime = 0.57 s  ClockTime = 2 s

Courant Number mean: 0.0659852 max: 0.473669
deltaT = 0.00245833
Time = 0.0311666

AMI: Creating addressing and weights between 96 source faces and 96 target faces
AMI: Patch source sum(weights) min/max/average = 1.00001, 1.00001, 1.00001
AMI: Patch target sum(weights) min/max/average = 1.00001, 1.00001, 1.00001
GAMG:  Solving for pcorr, Initial residual = 1, Final residual = 0.0102433, No Iterations 6
time step continuity errors : sum local = 7.93155e-06, global = 7.71109e-08, cumulative = 9.12545e-07
PIMPLE: iteration 1
smoothSolver:  Solving for Ux, Initial residual = 0.0200664, Final residual = 5.60612e-05, No Iterations 2
smoothSolver:  Solving for Uy, Initial residual = 0.0200646, Final residual = 5.64504e-05, No Iterations 2
GAMG:  Solving for p, Initial residual = 0.0566751, Final residual = 0.000399668, No Iterations 4
time step continuity errors : sum local = 6.22845e-07, global = 6.86867e-10, cumulative = 9.13232e-07
PIMPLE: iteration 2
smoothSolver:  Solving for Ux, Initial residual = 0.000882111, Final residual = 4.33698e-07, No Iterations 3
smoothSolver:  Solving for Uy, Initial residual = 0.000887547, Final residual = 4.37181e-07, No Iterations 3
GAMG:  Solving for p, Initial residual = 0.0316781, Final residual = 6.20905e-07, No Iterations 14
time step continuity errors : sum local = 1.68098e-09, global = 7.78991e-10, cumulative = 9.14011e-07
ExecutionTime = 0.61 s  ClockTime = 2 s

Courant Number mean: 0.0685623 max: 0.474739
deltaT = 0.00254938
Time = 0.033716

AMI: Creating addressing and weights between 96 source faces and 96 target faces
AMI: Patch source sum(weights) min/max/average = 1.00019, 1.00019, 1.00019
AMI: Patch target sum(weights) min/max/average = 1.00019, 1.00019, 1.00019
GAMG:  Solving for pcorr, Initial residual = 1, Final residual = 0.0108389, No Iterations 6
time step continuity errors : sum local = 8.91231e-06, global = 6.25087e-08, cumulative = 9.7652e-07
PIMPLE: iteration 1
smoothSolver:  Solving for Ux, Initial residual = 0.0204195, Final residual = 6.13482e-05, No Iterations 2
smoothSolver:  Solving for Uy, Initial residual = 0.0204177, Final residual = 6.17564e-05, No Iterations 2
GAMG:  Solving for p, Initial residual = 0.095414, Final residual = 0.000769845, No Iterations 3
time step continuity errors : sum local = 1.29429e-06, global = 3.85266e-08, cumulative = 1.01505e-06
PIMPLE: iteration 2
smoothSolver:  Solving for Ux, Initial residual = 0.000978733, Final residual = 5.05061e-07, No Iterations 3
smoothSolver:  Solving for Uy, Initial residual = 0.000983336, Final residual = 5.108e-07, No Iterations 3
GAMG:  Solving for p, Initial residual = 0.0336496, Final residual = 7.06806e-07, No Iterations 15
time step continuity errors : sum local = 3.89643e-08, global = 3.79274e-08, cumulative = 1.05297e-06
ExecutionTime = 0.65 s  ClockTime = 2 s

Courant Number mean: 0.0713734 max: 0.48489
deltaT = 0.00254938
Time = 0.0362654

AMI: Creating addressing and weights between 96 source faces and 96 target faces
AMI: Patch source sum(weights) min/max/average = 1.00027, 1.00027, 1.00027
AMI: Patch target sum(weights) min/max/average = 1.00027, 1.00027, 1.00027
GAMG:  Solving for pcorr, Initial residual = 1, Final residual = 0.0162392, No Iterations 4
time step continuity errors : sum local = 9.75477e-06, global = 8.74119e-08, cumulative = 1.14039e-06
PIMPLE: iteration 1
smoothSolver:  Solving for Ux, Initial residual = 0.0194917, Final residual = 6.03287e-05, No Iterations 2
smoothSolver:  Solving for Uy, Initial residual = 0.0194945, Final residual = 6.09766e-05, No Iterations 2
GAMG:  Solving for p, Initial residual = 0.0646588, Final residual = 0.000615345, No Iterations 3
time step continuity errors : sum local = 1.03163e-06, global = 5.60272e-08, cumulative = 1.19641e-06
PIMPLE: iteration 2
smoothSolver:  Solving for Ux, Initial residual = 0.000859647, Final residual = 4.64869e-07, No Iterations 3
smoothSolver:  Solving for Uy, Initial residual = 0.000865629, Final residual = 4.68869e-07, No Iterations 3
GAMG:  Solving for p, Initial residual = 0.0311121, Final residual = 9.24324e-07, No Iterations 13
time step continuity errors : sum local = 5.15693e-08, global = 5.01481e-08, cumulative = 1.24656e-06
ExecutionTime = 0.68 s  ClockTime = 2 s

Courant Number mean: 0.0716714 max: 0.48455
deltaT = 0.00254938
Time = 0.0388148

AMI: Creating addressing and weights between 96 source faces and 96 target faces
AMI: Patch source sum(weights) min/max/average = 1.00021, 1.00021, 1.00021
AMI: Patch target sum(weights) min/max/average = 1.00021, 1.00021, 1.00021
GAMG:  Solving for pcorr, Initial residual = 1, Final residual = 0.0174341, No Iterations 5
time step continuity errors : sum local = 9.99006e-06, global = 8.12883e-08, cumulative = 1.32785e-06
PIMPLE: iteration 1
smoothSolver:  Solving for Ux, Initial residual = 0.0192057, Final residual = 5.9483e-05, No Iterations 2
smoothSolver:  Solving for Uy, Initial residual = 0.0192092, Final residual = 6.02008e-05, No Iterations 2
GAMG:  Solving for p, Initial residual = 0.0610015, Final residual = 0.000586783, No Iterations 3
time step continuity errors : sum local = 9.72427e-07, global = 4.14001e-08, cumulative = 1.36925e-06
PIMPLE: iteration 2
smoothSolver:  Solving for Ux, Initial residual = 0.000841029, Final residual = 4.63722e-07, No Iterations 3
smoothSolver:  Solving for Uy, Initial residual = 0.000848126, Final residual = 4.65172e-07, No Iterations 3
GAMG:  Solving for p, Initial residual = 0.0325071, Final residual = 7.09461e-07, No Iterations 13
time step continuity errors : sum local = 3.95189e-08, global = 3.83506e-08, cumulative = 1.4076e-06
ExecutionTime = 0.72 s  ClockTime = 2 s

Courant Number mean: 0.07201 max: 0.483403
deltaT = 0.00254938
Time = 0.0413642

AMI: Creating addressing and weights between 96 source faces and 96 target faces
AMI: Patch source sum(weights) min/max/average = 1.00003, 1.00003, 1.00003
AMI: Patch target sum(weights) min/max/average = 1.00003, 1.00003, 1.00003
GAMG:  Solving for pcorr, Initial residual = 1, Final residual = 0.0171296, No Iterations 5
time step continuity errors : sum local = 1.00873e-05, global = 4.66833e-08, cumulative = 1.45428e-06
PIMPLE: iteration 1
smoothSolver:  Solving for Ux, Initial residual = 0.0189658, Final residual = 5.97674e-05, No Iterations 2
smoothSolver:  Solving for Uy, Initial residual = 0.0189699, Final residual = 6.05354e-05, No Iterations 2
GAMG:  Solving for p, Initial residual = 0.0532844, Final residual = 0.000521581, No Iterations 3
time step continuity errors : sum local = 8.19441e-07, global = 5.7373e-09, cumulative = 1.46002e-06
PIMPLE: iteration 2
smoothSolver:  Solving for Ux, Initial residual = 0.000795036, Final residual = 4.51043e-07, No Iterations 3
smoothSolver:  Solving for Uy, Initial residual = 0.000802931, Final residual = 4.52344e-07, No Iterations 3
GAMG:  Solving for p, Initial residual = 0.0322256, Final residual = 8.40903e-07, No Iterations 13
time step continuity errors : sum local = 7.43575e-09, global = 6.08117e-09, cumulative = 1.4661e-06
ExecutionTime = 0.75 s  ClockTime = 2 s

Courant Number mean: 0.0723836 max: 0.48055
deltaT = 0.00254938
Time = 0.0439136

AMI: Creating addressing and weights between 96 source faces and 96 target faces
AMI: Patch source sum(weights) min/max/average = 1.00018, 1.00018, 1.00018
AMI: Patch target sum(weights) min/max/average = 1.00018, 1.00018, 1.00018
GAMG:  Solving for pcorr, Initial residual = 1, Final residual = 0.0176925, No Iterations 5
time step continuity errors : sum local = 1.04332e-05, global = -9.8332e-09, cumulative = 1.45627e-06
PIMPLE: iteration 1
smoothSolver:  Solving for Ux, Initial residual = 0.0187639, Final residual = 6.103e-05, No Iterations 2
smoothSolver:  Solving for Uy, Initial residual = 0.0187678, Final residual = 6.17646e-05, No Iterations 2
GAMG:  Solving for p, Initial residual = 0.0856494, Final residual = 0.000828046, No Iterations 3
time step continuity errors : sum local = 1.34042e-06, global = 5.09739e-08, cumulative = 1.50724e-06
PIMPLE: iteration 2
smoothSolver:  Solving for Ux, Initial residual = 0.000821658, Final residual = 4.65884e-07, No Iterations 3
smoothSolver:  Solving for Uy, Initial residual = 0.000828748, Final residual = 4.67136e-07, No Iterations 3
GAMG:  Solving for p, Initial residual = 0.0334353, Final residual = 7.36391e-07, No Iterations 12
time step continuity errors : sum local = 4.9962e-08, global = 4.87682e-08, cumulative = 1.55601e-06
ExecutionTime = 0.79 s  ClockTime = 2 s

Courant Number mean: 0.0727256 max: 0.475718
deltaT = 0.00267078
Time = 0.0465843

AMI: Creating addressing and weights between 96 source faces and 96 target faces
AMI: Patch source sum(weights) min/max/average = 1.00027, 1.00027, 1.00027
AMI: Patch target sum(weights) min/max/average = 1.00027, 1.00027, 1.00027
GAMG:  Solving for pcorr, Initial residual = 1, Final residual = 0.0191432, No Iterations 5
time step continuity errors : sum local = 1.18626e-05, global = 4.2699e-09, cumulative = 1.56028e-06
PIMPLE: iteration 1
smoothSolver:  Solving for Ux, Initial residual = 0.0190839, Final residual = 7.07562e-05, No Iterations 2
smoothSolver:  Solving for Uy, Initial residual = 0.0190941, Final residual = 7.17351e-05, No Iterations 2
GAMG:  Solving for p, Initial residual = 0.0648058, Final residual = 0.000523356, No Iterations 3
time step continuity errors : sum local = 9.52044e-07, global = 8.99904e-08, cumulative = 1.65027e-06
PIMPLE: iteration 2
smoothSolver:  Solving for Ux, Initial residual = 0.000840242, Final residual = 5.37329e-07, No Iterations 3
smoothSolver:  Solving for Uy, Initial residual = 0.000847431, Final residual = 5.41225e-07, No Iterations 3
GAMG:  Solving for p, Initial residual = 0.03381, Final residual = 9.50046e-07, No Iterations 13
time step continuity errors : sum local = 8.30601e-08, global = 8.14012e-08, cumulative = 1.73167e-06
ExecutionTime = 0.82 s  ClockTime = 2 s

Courant Number mean: 0.0766181 max: 0.491686
deltaT = 0.00267078
Time = 0.0492551

AMI: Creating addressing and weights between 96 source faces and 96 target faces
AMI: Patch source sum(weights) min/max/average = 1.00021, 1.00021, 1.00021
AMI: Patch target sum(weights) min/max/average = 1.00021, 1.00021, 1.00021
GAMG:  Solving for pcorr, Initial residual = 1, Final residual = 0.0166714, No Iterations 5
time step continuity errors : sum local = 1.16372e-05, global = -5.14925e-10, cumulative = 1.73116e-06
PIMPLE: iteration 1
smoothSolver:  Solving for Ux, Initial residual = 0.0189963, Final residual = 7.19412e-05, No Iterations 2
smoothSolver:  Solving for Uy, Initial residual = 0.0190043, Final residual = 7.26997e-05, No Iterations 2
GAMG:  Solving for p, Initial residual = 0.0593074, Final residual = 0.00029692, No Iterations 3
time step continuity errors : sum local = 5.62608e-07, global = 7.10605e-08, cumulative = 1.80222e-06
PIMPLE: iteration 2
smoothSolver:  Solving for Ux, Initial residual = 0.000802045, Final residual = 5.09235e-07, No Iterations 3
smoothSolver:  Solving for Uy, Initial residual = 0.000810976, Final residual = 5.10755e-07, No Iterations 3
GAMG:  Solving for p, Initial residual = 0.0323838, Final residual = 6.39744e-07, No Iterations 14
time step continuity errors : sum local = 6.7525e-08, global = 6.65495e-08, cumulative = 1.86877e-06
ExecutionTime = 0.86 s  ClockTime = 2 s

Courant Number mean: 0.0770567 max: 0.484532
deltaT = 0.00267078
Time = 0.0519259

AMI: Creating addressing and weights between 96 source faces and 96 target faces
AMI: Patch source sum(weights) min/max/average = 1.00002, 1.00002, 1.00002
AMI: Patch target sum(weights) min/max/average = 1.00002, 1.00002, 1.00002
GAMG:  Solving for pcorr, Initial residual = 1, Final residual = 0.0166518, No Iterations 4
time step continuity errors : sum local = 1.18754e-05, global = -5.21197e-08, cumulative = 1.81665e-06
PIMPLE: iteration 1
smoothSolver:  Solving for Ux, Initial residual = 0.0189585, Final residual = 7.28067e-05, No Iterations 2
smoothSolver:  Solving for Uy, Initial residual = 0.0189652, Final residual = 7.33505e-05, No Iterations 2
GAMG:  Solving for p, Initial residual = 0.0613996, Final residual = 0.000295329, No Iterations 4
time step continuity errors : sum local = 4.91537e-07, global = 5.42718e-09, cumulative = 1.82207e-06
PIMPLE: iteration 2
smoothSolver:  Solving for Ux, Initial residual = 0.000782555, Final residual = 4.87803e-07, No Iterations 3
smoothSolver:  Solving for Uy, Initial residual = 0.000790705, Final residual = 4.88705e-07, No Iterations 3
GAMG:  Solving for p, Initial residual = 0.0306749, Final residual = 8.0757e-07, No Iterations 10
time step continuity errors : sum local = 6.95438e-09, global = 5.51677e-09, cumulative = 1.82759e-06
ExecutionTime = 0.89 s  ClockTime = 2 s

Courant Number mean: 0.0775664 max: 0.483141
deltaT = 0.00267078
Time = 0.0545967

AMI: Creating addressing and weights between 96 source faces and 96 target faces
AMI: Patch source sum(weights) min/max/average = 1.0002, 1.0002, 1.0002
AMI: Patch target sum(weights) min/max/average = 1.0002, 1.0002, 1.0002
GAMG:  Solving for pcorr, Initial residual = 1, Final residual = 0.0164274, No Iterations 5
time step continuity errors : sum local = 1.19672e-05, global = -1.47526e-07, cumulative = 1.68007e-06
PIMPLE: iteration 1
smoothSolver:  Solving for Ux, Initial residual = 0.0187864, Final residual = 7.29428e-05, No Iterations 2
smoothSolver:  Solving for Uy, Initial residual = 0.0187929, Final residual = 7.34044e-05, No Iterations 2
GAMG:  Solving for p, Initial residual = 0.0815363, Final residual = 0.000542629, No Iterations 3
time step continuity errors : sum local = 9.79919e-07, global = 8.67637e-08, cumulative = 1.76683e-06
PIMPLE: iteration 2
smoothSolver:  Solving for Ux, Initial residual = 0.000796363, Final residual = 5.01062e-07, No Iterations 3
smoothSolver:  Solving for Uy, Initial residual = 0.000809375, Final residual = 5.02512e-07, No Iterations 3
GAMG:  Solving for p, Initial residual = 0.0308247, Final residual = 7.28773e-07, No Iterations 14
time step continuity errors : sum local = 8.59172e-08, global = 8.46374e-08, cumulative = 1.85147e-06
ExecutionTime = 0.93 s  ClockTime = 2 s

Courant Number mean: 0.0780075 max: 0.479532
deltaT = 0.00267078
Time = 0.0572675

AMI: Creating addressing and weights between 96 source faces and 96 target faces
AMI: Patch source sum(weights) min/max/average = 1.00027, 1.00027, 1.00027
AMI: Patch target sum(weights) min/max/average = 1.00027, 1.00027, 1.00027
GAMG:  Solving for pcorr, Initial residual = 1, Final residual = 0.0170304, No Iterations 4
time step continuity errors : sum local = 1.23811e-05, global = -1.03734e-07, cumulative = 1.74773e-06
PIMPLE: iteration 1
smoothSolver:  Solving for Ux, Initial residual = 0.0181026, Final residual = 7.36204e-05, No Iterations 2
smoothSolver:  Solving for Uy, Initial residual = 0.0181168, Final residual = 7.42149e-05, No Iterations 2
GAMG:  Solving for p, Initial residual = 0.0676319, Final residual = 0.000272549, No Iterations 4
time step continuity errors : sum local = 5.61299e-07, global = 1.23637e-07, cumulative = 1.87137e-06
PIMPLE: iteration 2
smoothSolver:  Solving for Ux, Initial residual = 0.000743944, Final residual = 4.85488e-07, No Iterations 3
smoothSolver:  Solving for Uy, Initial residual = 0.000753548, Final residual = 4.86227e-07, No Iterations 3
GAMG:  Solving for p, Initial residual = 0.0310217, Final residual = 7.99335e-07, No Iterations 11
time step continuity errors : sum local = 1.1799e-07, global = 1.16829e-07, cumulative = 1.9882e-06
ExecutionTime = 0.96 s  ClockTime = 2 s

Courant Number mean: 0.078436 max: 0.473311
deltaT = 0.00267078
Time = 0.0599383

AMI: Creating addressing and weights between 96 source faces and 96 target faces
AMI: Patch source sum(weights) min/max/average = 1.0002, 1.0002, 1.0002
AMI: Patch target sum(weights) min/max/average = 1.0002, 1.0002, 1.0002
GAMG:  Solving for pcorr, Initial residual = 1, Final residual = 0.0171785, No Iterations 5
time step continuity errors : sum local = 1.23102e-05, global = -1.08616e-07, cumulative = 1.87958e-06
PIMPLE: iteration 1
smoothSolver:  Solving for Ux, Initial residual = 0.01809, Final residual = 7.56976e-05, No Iterations 2
smoothSolver:  Solving for Uy, Initial residual = 0.0181008, Final residual = 7.6122e-05, No Iterations 2
GAMG:  Solving for p, Initial residual = 0.0536722, Final residual = 0.000365812, No Iterations 3
time step continuity errors : sum local = 6.94363e-07, global = 9.32166e-08, cumulative = 1.9728e-06
PIMPLE: iteration 2
smoothSolver:  Solving for Ux, Initial residual = 0.000717846, Final residual = 4.76941e-07, No Iterations 3
smoothSolver:  Solving for Uy, Initial residual = 0.000728753, Final residual = 4.78519e-07, No Iterations 3
GAMG:  Solving for p, Initial residual = 0.0296233, Final residual = 9.25507e-07, No Iterations 14
time step continuity errors : sum local = 9.45043e-08, global = 9.31067e-08, cumulative = 2.06591e-06
ExecutionTime = 1 s  ClockTime = 2 s

Courant Number mean: 0.0789221 max: 0.472789
deltaT = 0.00267078
Time = 0.062609

AMI: Creating addressing and weights between 96 source faces and 96 target faces
AMI: Patch source sum(weights) min/max/average = 1.00001, 1.00001, 1.00001
AMI: Patch target sum(weights) min/max/average = 1.00001, 1.00001, 1.00001
GAMG:  Solving for pcorr, Initial residual = 1, Final residual = 0.0161734, No Iterations 4
time step continuity errors : sum local = 1.23748e-05, global = -1.68496e-07, cumulative = 1.89741e-06
PIMPLE: iteration 1
smoothSolver:  Solving for Ux, Initial residual = 0.0181421, Final residual = 7.77157e-05, No Iterations 2
smoothSolver:  Solving for Uy, Initial residual = 0.0181524, Final residual = 7.7947e-05, No Iterations 2
GAMG:  Solving for p, Initial residual = 0.0539303, Final residual = 0.000214876, No Iterations 4
time step continuity errors : sum local = 3.55245e-07, global = 5.51212e-09, cumulative = 1.90292e-06
PIMPLE: iteration 2
smoothSolver:  Solving for Ux, Initial residual = 0.000707844, Final residual = 4.78592e-07, No Iterations 3
smoothSolver:  Solving for Uy, Initial residual = 0.000714829, Final residual = 4.79403e-07, No Iterations 3
GAMG:  Solving for p, Initial residual = 0.0293912, Final residual = 6.78873e-07, No Iterations 13
time step continuity errors : sum local = 6.74448e-09, global = 5.56468e-09, cumulative = 1.90849e-06
ExecutionTime = 1.03 s  ClockTime = 3 s

Courant Number mean: 0.0794181 max: 0.474464
deltaT = 0.00267078
Time = 0.0652798

AMI: Creating addressing and weights between 96 source faces and 96 target faces
AMI: Patch source sum(weights) min/max/average = 1.00021, 1.00021, 1.00021
AMI: Patch target sum(weights) min/max/average = 1.00021, 1.00021, 1.00021
GAMG:  Solving for pcorr, Initial residual = 1, Final residual = 0.0149754, No Iterations 5
time step continuity errors : sum local = 1.23238e-05, global = -2.86145e-07, cumulative = 1.62234e-06
PIMPLE: iteration 1
smoothSolver:  Solving for Ux, Initial residual = 0.0181056, Final residual = 7.95341e-05, No Iterations 2
smoothSolver:  Solving for Uy, Initial residual = 0.0181113, Final residual = 7.96767e-05, No Iterations 2
GAMG:  Solving for p, Initial residual = 0.0792394, Final residual = 0.000741733, No Iterations 3
time step continuity errors : sum local = 1.34372e-06, global = 1.15828e-07, cumulative = 1.73817e-06
PIMPLE: iteration 2
smoothSolver:  Solving for Ux, Initial residual = 0.000737151, Final residual = 5.01175e-07, No Iterations 3
smoothSolver:  Solving for Uy, Initial residual = 0.000745488, Final residual = 5.01418e-07, No Iterations 3
GAMG:  Solving for p, Initial residual = 0.0299195, Final residual = 9.48533e-07, No Iterations 12
time step continuity errors : sum local = 1.13228e-07, global = 1.11789e-07, cumulative = 1.84996e-06
ExecutionTime = 1.07 s  ClockTime = 3 s

Courant Number mean: 0.0798425 max: 0.474479
deltaT = 0.00267078
Time = 0.0679506

AMI: Creating addressing and weights between 96 source faces and 96 target faces
AMI: Patch source sum(weights) min/max/average = 1.00027, 1.00027, 1.00027
AMI: Patch target sum(weights) min/max/average = 1.00027, 1.00027, 1.00027
GAMG:  Solving for pcorr, Initial residual = 1, Final residual = 0.0156491, No Iterations 5
time step continuity errors : sum local = 1.25136e-05, global = -2.06682e-07, cumulative = 1.64328e-06
PIMPLE: iteration 1
smoothSolver:  Solving for Ux, Initial residual = 0.0175673, Final residual = 8.00277e-05, No Iterations 2
smoothSolver:  Solving for Uy, Initial residual = 0.0175826, Final residual = 8.02875e-05, No Iterations 2
GAMG:  Solving for p, Initial residual = 0.058141, Final residual = 0.000544078, No Iterations 3
time step continuity errors : sum local = 1.04456e-06, global = 1.49347e-07, cumulative = 1.79263e-06
PIMPLE: iteration 2
smoothSolver:  Solving for Ux, Initial residual = 0.000674126, Final residual = 4.5517e-07, No Iterations 3
smoothSolver:  Solving for Uy, Initial residual = 0.000683204, Final residual = 4.56879e-07, No Iterations 3
GAMG:  Solving for p, Initial residual = 0.0292248, Final residual = 8.85602e-07, No Iterations 13
time step continuity errors : sum local = 1.41771e-07, global = 1.40238e-07, cumulative = 1.93286e-06
ExecutionTime = 1.1 s  ClockTime = 3 s

Courant Number mean: 0.0802864 max: 0.472235
deltaT = 0.00267078
Time = 0.0706214

AMI: Creating addressing and weights between 96 source faces and 96 target faces
AMI: Patch source sum(weights) min/max/average = 1.00018, 1.00018, 1.00018
AMI: Patch target sum(weights) min/max/average = 1.00018, 1.00018, 1.00018
GAMG:  Solving for pcorr, Initial residual = 1, Final residual = 0.015636, No Iterations 5
time step continuity errors : sum local = 1.25692e-05, global = -2.02375e-07, cumulative = 1.73049e-06
PIMPLE: iteration 1
smoothSolver:  Solving for Ux, Initial residual = 0.0175985, Final residual = 8.10779e-05, No Iterations 2
smoothSolver:  Solving for Uy, Initial residual = 0.0176109, Final residual = 8.11736e-05, No Iterations 2
GAMG:  Solving for p, Initial residual = 0.0585176, Final residual = 0.000445084, No Iterations 3
time step continuity errors : sum local = 8.35888e-07, global = 1.02021e-07, cumulative = 1.83251e-06
PIMPLE: iteration 2
smoothSolver:  Solving for Ux, Initial residual = 0.00065244, Final residual = 4.39313e-07, No Iterations 3
smoothSolver:  Solving for Uy, Initial residual = 0.000659671, Final residual = 4.39046e-07, No Iterations 3
GAMG:  Solving for p, Initial residual = 0.0265524, Final residual = 9.19937e-07, No Iterations 13
time step continuity errors : sum local = 1.00722e-07, global = 9.91398e-08, cumulative = 1.93165e-06
ExecutionTime = 1.14 s  ClockTime = 3 s

Courant Number mean: 0.0807622 max: 0.467385
deltaT = 0.00267078
Time = 0.0732922

AMI: Creating addressing and weights between 96 source faces and 96 target faces
AMI: Patch source sum(weights) min/max/average = 1.00004, 1.00004, 1.00004
AMI: Patch target sum(weights) min/max/average = 1.00004, 1.00004, 1.00004
GAMG:  Solving for pcorr, Initial residual = 1, Final residual = 0.0162909, No Iterations 5
time step continuity errors : sum local = 1.27409e-05, global = -2.61575e-07, cumulative = 1.67007e-06
PIMPLE: iteration 1
smoothSolver:  Solving for Ux, Initial residual = 0.0175644, Final residual = 8.2745e-05, No Iterations 2
smoothSolver:  Solving for Uy, Initial residual = 0.017577, Final residual = 8.26648e-05, No Iterations 2
GAMG:  Solving for p, Initial residual = 0.0528983, Final residual = 0.000374423, No Iterations 3
time step continuity errors : sum local = 6.37313e-07, global = 2.10355e-08, cumulative = 1.69111e-06
PIMPLE: iteration 2
smoothSolver:  Solving for Ux, Initial residual = 0.000641481, Final residual = 4.45893e-07, No Iterations 3
smoothSolver:  Solving for Uy, Initial residual = 0.000649479, Final residual = 4.44629e-07, No Iterations 3
GAMG:  Solving for p, Initial residual = 0.0264559, Final residual = 8.52303e-07, No Iterations 12
time step continuity errors : sum local = 2.23942e-08, global = 2.10928e-08, cumulative = 1.7122e-06
ExecutionTime = 1.17 s  ClockTime = 3 s

Courant Number mean: 0.0812466 max: 0.462443
deltaT = 0.00267078
Time = 0.075963

AMI: Creating addressing and weights between 96 source faces and 96 target faces
AMI: Patch source sum(weights) min/max/average = 1.00022, 1.00022, 1.00022
AMI: Patch target sum(weights) min/max/average = 1.00022, 1.00022, 1.00022
GAMG:  Solving for pcorr, Initial residual = 1, Final residual = 0.0159262, No Iterations 4
time step continuity errors : sum local = 1.31747e-05, global = -3.47493e-07, cumulative = 1.36471e-06
PIMPLE: iteration 1
smoothSolver:  Solving for Ux, Initial residual = 0.0173821, Final residual = 8.42177e-05, No Iterations 2
smoothSolver:  Solving for Uy, Initial residual = 0.0173939, Final residual = 8.41176e-05, No Iterations 2
GAMG:  Solving for p, Initial residual = 0.0817446, Final residual = 0.000789977, No Iterations 3
time step continuity errors : sum local = 1.43368e-06, global = 1.32697e-07, cumulative = 1.49741e-06
PIMPLE: iteration 2
smoothSolver:  Solving for Ux, Initial residual = 0.000672483, Final residual = 4.72841e-07, No Iterations 3
smoothSolver:  Solving for Uy, Initial residual = 0.00068012, Final residual = 4.72804e-07, No Iterations 3
GAMG:  Solving for p, Initial residual = 0.0281076, Final residual = 6.34466e-07, No Iterations 10
time step continuity errors : sum local = 1.30947e-07, global = 1.30072e-07, cumulative = 1.62748e-06
ExecutionTime = 1.2 s  ClockTime = 3 s

Courant Number mean: 0.0816725 max: 0.464897
deltaT = 0.00267078
Time = 0.0786337

AMI: Creating addressing and weights between 96 source faces and 96 target faces
AMI: Patch source sum(weights) min/max/average = 1.00027, 1.00027, 1.00027
AMI: Patch target sum(weights) min/max/average = 1.00027, 1.00027, 1.00027
GAMG:  Solving for pcorr, Initial residual = 1, Final residual = 0.0105215, No Iterations 6
time step continuity errors : sum local = 1.21531e-05, global = -2.39658e-07, cumulative = 1.38782e-06
PIMPLE: iteration 1
smoothSolver:  Solving for Ux, Initial residual = 0.0169285, Final residual = 8.57105e-05, No Iterations 2
smoothSolver:  Solving for Uy, Initial residual = 0.01695, Final residual = 8.5699e-05, No Iterations 2
GAMG:  Solving for p, Initial residual = 0.0562879, Final residual = 0.000502808, No Iterations 3
time step continuity errors : sum local = 9.88833e-07, global = 1.61001e-07, cumulative = 1.54882e-06
PIMPLE: iteration 2
smoothSolver:  Solving for Ux, Initial residual = 0.000622601, Final residual = 4.354e-07, No Iterations 3
smoothSolver:  Solving for Uy, Initial residual = 0.000630042, Final residual = 4.33311e-07, No Iterations 3
GAMG:  Solving for p, Initial residual = 0.0271462, Final residual = 6.75596e-07, No Iterations 13
time step continuity errors : sum local = 1.55566e-07, global = 1.54407e-07, cumulative = 1.70323e-06
ExecutionTime = 1.24 s  ClockTime = 3 s

Courant Number mean: 0.0820861 max: 0.465387
deltaT = 0.00267078
Time = 0.0813045

AMI: Creating addressing and weights between 96 source faces and 96 target faces
AMI: Patch source sum(weights) min/max/average = 1.00017, 1.00017, 1.00017
AMI: Patch target sum(weights) min/max/average = 1.00017, 1.00017, 1.00017
GAMG:  Solving for pcorr, Initial residual = 1, Final residual = 0.0104288, No Iterations 6
time step continuity errors : sum local = 1.21528e-05, global = -2.10001e-07, cumulative = 1.49323e-06
PIMPLE: iteration 1
smoothSolver:  Solving for Ux, Initial residual = 0.0169956, Final residual = 8.73643e-05, No Iterations 2
smoothSolver:  Solving for Uy, Initial residual = 0.0170122, Final residual = 8.72223e-05, No Iterations 2
GAMG:  Solving for p, Initial residual = 0.0485493, Final residual = 0.000467962, No Iterations 3
time step continuity errors : sum local = 8.74499e-07, global = 1.00038e-07, cumulative = 1.59327e-06
PIMPLE: iteration 2
smoothSolver:  Solving for Ux, Initial residual = 0.000607338, Final residual = 4.31443e-07, No Iterations 3
smoothSolver:  Solving for Uy, Initial residual = 0.000614633, Final residual = 4.2874e-07, No Iterations 3
GAMG:  Solving for p, Initial residual = 0.0260039, Final residual = 8.08987e-07, No Iterations 13
time step continuity errors : sum local = 1.01225e-07, global = 9.98302e-08, cumulative = 1.6931e-06
ExecutionTime = 1.28 s  ClockTime = 3 s

Courant Number mean: 0.0825677 max: 0.463918
deltaT = 0.00267078
Time = 0.0839753

AMI: Creating addressing and weights between 96 source faces and 96 target faces
AMI: Patch source sum(weights) min/max/average = 1.00006, 1.00006, 1.00006
AMI: Patch target sum(weights) min/max/average = 1.00006, 1.00006, 1.00006
GAMG:  Solving for pcorr, Initial residual = 1, Final residual = 0.010526, No Iterations 6
time step continuity errors : sum local = 1.2234e-05, global = -2.49472e-07, cumulative = 1.44362e-06
PIMPLE: iteration 1
smoothSolver:  Solving for Ux, Initial residual = 0.0170788, Final residual = 8.87669e-05, No Iterations 2
smoothSolver:  Solving for Uy, Initial residual = 0.0170909, Final residual = 8.85389e-05, No Iterations 2
GAMG:  Solving for p, Initial residual = 0.0514992, Final residual = 0.000415561, No Iterations 3
time step continuity errors : sum local = 7.29334e-07, global = 3.8223e-08, cumulative = 1.48185e-06
PIMPLE: iteration 2
smoothSolver:  Solving for Ux, Initial residual = 0.000610425, Final residual = 4.34992e-07, No Iterations 3
smoothSolver:  Solving for Uy, Initial residual = 0.000618776, Final residual = 4.34028e-07, No Iterations 3
GAMG:  Solving for p, Initial residual = 0.0254485, Final residual = 8.21322e-07, No Iterations 12
time step continuity errors : sum local = 3.88599e-08, global = 3.76021e-08, cumulative = 1.51945e-06
ExecutionTime = 1.31 s  ClockTime = 3 s

Courant Number mean: 0.0830413 max: 0.460557
deltaT = 0.00267078
Time = 0.0866461

AMI: Creating addressing and weights between 96 source faces and 96 target faces
AMI: Patch source sum(weights) min/max/average = 1.00023, 1.00023, 1.00023
AMI: Patch target sum(weights) min/max/average = 1.00023, 1.00023, 1.00023
GAMG:  Solving for pcorr, Initial residual = 1, Final residual = 0.0104473, No Iterations 6
time step continuity errors : sum local = 1.2465e-05, global = -2.82894e-07, cumulative = 1.23655e-06
PIMPLE: iteration 1
smoothSolver:  Solving for Ux, Initial residual = 0.0168547, Final residual = 8.96674e-05, No Iterations 2
smoothSolver:  Solving for Uy, Initial residual = 0.0168666, Final residual = 8.94059e-05, No Iterations 2
GAMG:  Solving for p, Initial residual = 0.072346, Final residual = 0.000524427, No Iterations 3
time step continuity errors : sum local = 1.04e-06, global = 1.45682e-07, cumulative = 1.38224e-06
PIMPLE: iteration 2
smoothSolver:  Solving for Ux, Initial residual = 0.000622212, Final residual = 4.44467e-07, No Iterations 3
smoothSolver:  Solving for Uy, Initial residual = 0.00063048, Final residual = 4.42676e-07, No Iterations 3
GAMG:  Solving for p, Initial residual = 0.0260987, Final residual = 9.55931e-07, No Iterations 12
time step continuity errors : sum local = 1.41287e-07, global = 1.39823e-07, cumulative = 1.52206e-06
ExecutionTime = 1.35 s  ClockTime = 3 s

Courant Number mean: 0.0834688 max: 0.455369
deltaT = 0.00267078
Time = 0.0893169

AMI: Creating addressing and weights between 96 source faces and 96 target faces
AMI: Patch source sum(weights) min/max/average = 1.00026, 1.00026, 1.00026
AMI: Patch target sum(weights) min/max/average = 1.00026, 1.00026, 1.00026
GAMG:  Solving for pcorr, Initial residual = 1, Final residual = 0.0184919, No Iterations 5
time step continuity errors : sum local = 1.38952e-05, global = -1.4251e-07, cumulative = 1.37955e-06
PIMPLE: iteration 1
smoothSolver:  Solving for Ux, Initial residual = 0.0164547, Final residual = 9.07423e-05, No Iterations 2
smoothSolver:  Solving for Uy, Initial residual = 0.0164788, Final residual = 9.0534e-05, No Iterations 2
GAMG:  Solving for p, Initial residual = 0.055376, Final residual = 0.000324033, No Iterations 3
time step continuity errors : sum local = 7.02281e-07, global = 1.62497e-07, cumulative = 1.54205e-06
PIMPLE: iteration 2
smoothSolver:  Solving for Ux, Initial residual = 0.000570769, Final residual = 4.22771e-07, No Iterations 3
smoothSolver:  Solving for Uy, Initial residual = 0.00057981, Final residual = 4.17225e-07, No Iterations 3
GAMG:  Solving for p, Initial residual = 0.0247834, Final residual = 7.91622e-07, No Iterations 12
time step continuity errors : sum local = 1.56403e-07, global = 1.55181e-07, cumulative = 1.69723e-06
ExecutionTime = 1.39 s  ClockTime = 3 s

Courant Number mean: 0.0839335 max: 0.45446
deltaT = 0.00267078
Time = 0.0919877

AMI: Creating addressing and weights between 96 source faces and 96 target faces
AMI: Patch source sum(weights) min/max/average = 1.00015, 1.00015, 1.00015
AMI: Patch target sum(weights) min/max/average = 1.00015, 1.00015, 1.00015
GAMG:  Solving for pcorr, Initial residual = 1, Final residual = 0.0159012, No Iterations 4
time step continuity errors : sum local = 1.35697e-05, global = -7.98719e-08, cumulative = 1.61736e-06
PIMPLE: iteration 1
smoothSolver:  Solving for Ux, Initial residual = 0.0164731, Final residual = 9.26368e-05, No Iterations 2
smoothSolver:  Solving for Uy, Initial residual = 0.0164925, Final residual = 9.23359e-05, No Iterations 2
GAMG:  Solving for p, Initial residual = 0.0544269, Final residual = 0.000167799, No Iterations 4
time step continuity errors : sum local = 3.65497e-07, global = 9.16563e-08, cumulative = 1.70901e-06
PIMPLE: iteration 2
smoothSolver:  Solving for Ux, Initial residual = 0.000563564, Final residual = 4.12655e-07, No Iterations 3
smoothSolver:  Solving for Uy, Initial residual = 0.000570913, Final residual = 4.07726e-07, No Iterations 3
GAMG:  Solving for p, Initial residual = 0.0239551, Final residual = 9.97098e-07, No Iterations 9
time step continuity errors : sum local = 9.40908e-08, global = 9.23199e-08, cumulative = 1.80133e-06
ExecutionTime = 1.42 s  ClockTime = 3 s

Courant Number mean: 0.0843891 max: 0.455692
deltaT = 0.00267078
Time = 0.0946584

AMI: Creating addressing and weights between 96 source faces and 96 target faces
AMI: Patch source sum(weights) min/max/average = 1.00009, 1.00009, 1.00009
AMI: Patch target sum(weights) min/max/average = 1.00009, 1.00009, 1.00009
GAMG:  Solving for pcorr, Initial residual = 1, Final residual = 0.0122289, No Iterations 6
time step continuity errors : sum local = 1.29165e-05, global = -8.21504e-08, cumulative = 1.71918e-06
PIMPLE: iteration 1
smoothSolver:  Solving for Ux, Initial residual = 0.0164823, Final residual = 9.40245e-05, No Iterations 2
smoothSolver:  Solving for Uy, Initial residual = 0.0164957, Final residual = 9.36313e-05, No Iterations 2
GAMG:  Solving for p, Initial residual = 0.0581593, Final residual = 0.000372638, No Iterations 3
time step continuity errors : sum local = 6.78877e-07, global = 5.29758e-08, cumulative = 1.77216e-06
PIMPLE: iteration 2
smoothSolver:  Solving for Ux, Initial residual = 0.000576246, Final residual = 4.34683e-07, No Iterations 3
smoothSolver:  Solving for Uy, Initial residual = 0.000583621, Final residual = 4.29809e-07, No Iterations 3
GAMG:  Solving for p, Initial residual = 0.0251769, Final residual = 6.75124e-07, No Iterations 14
time step continuity errors : sum local = 5.36816e-08, global = 5.26705e-08, cumulative = 1.82483e-06
ExecutionTime = 1.46 s  ClockTime = 3 s

Courant Number mean: 0.084812 max: 0.455428
deltaT = 0.00267078
Time = 0.0973292

AMI: Creating addressing and weights between 96 source faces and 96 target faces
AMI: Patch source sum(weights) min/max/average = 1.00024, 1.00024, 1.00024
AMI: Patch target sum(weights) min/max/average = 1.00024, 1.00024, 1.00024
GAMG:  Solving for pcorr, Initial residual = 1, Final residual = 0.0152985, No Iterations 4
time step continuity errors : sum local = 1.37556e-05, global = -4.43047e-08, cumulative = 1.78052e-06
PIMPLE: iteration 1
smoothSolver:  Solving for Ux, Initial residual = 0.016248, Final residual = 9.52652e-05, No Iterations 2
smoothSolver:  Solving for Uy, Initial residual = 0.0162637, Final residual = 9.49019e-05, No Iterations 2
GAMG:  Solving for p, Initial residual = 0.0706963, Final residual = 0.000577534, No Iterations 3
time step continuity errors : sum local = 1.08703e-06, global = 1.51897e-07, cumulative = 1.93242e-06
PIMPLE: iteration 2
smoothSolver:  Solving for Ux, Initial residual = 0.000575601, Final residual = 4.33261e-07, No Iterations 3
smoothSolver:  Solving for Uy, Initial residual = 0.00058254, Final residual = 4.30434e-07, No Iterations 3
GAMG:  Solving for p, Initial residual = 0.0253857, Final residual = 9.37427e-07, No Iterations 12
time step continuity errors : sum local = 1.47607e-07, global = 1.46253e-07, cumulative = 2.07867e-06
ExecutionTime = 1.49 s  ClockTime = 4 s

Courant Number mean: 0.0851927 max: 0.453534
deltaT = 0.00267078
Time = 0.1

AMI: Creating addressing and weights between 96 source faces and 96 target faces
AMI: Patch source sum(weights) min/max/average = 1.00026, 1.00026, 1.00026
AMI: Patch target sum(weights) min/max/average = 1.00026, 1.00026, 1.00026
GAMG:  Solving for pcorr, Initial residual = 1, Final residual = 0.0121634, No Iterations 6
time step continuity errors : sum local = 1.30748e-05, global = 1.38048e-07, cumulative = 2.21672e-06
PIMPLE: iteration 1
smoothSolver:  Solving for Ux, Initial residual = 0.0159564, Final residual = 9.59599e-05, No Iterations 2
smoothSolver:  Solving for Uy, Initial residual = 0.0159811, Final residual = 9.56916e-05, No Iterations 2
GAMG:  Solving for p, Initial residual = 0.052788, Final residual = 0.000404744, No Iterations 3
time step continuity errors : sum local = 8.28711e-07, global = 1.58291e-07, cumulative = 2.37501e-06
PIMPLE: iteration 2
smoothSolver:  Solving for Ux, Initial residual = 0.00054323, Final residual = 4.1339e-07, No Iterations 3
smoothSolver:  Solving for Uy, Initial residual = 0.000551441, Final residual = 4.07616e-07, No Iterations 3
GAMG:  Solving for p, Initial residual = 0.024422, Final residual = 6.74391e-07, No Iterations 13
time step continuity errors : sum local = 1.47725e-07, global = 1.46579e-07, cumulative = 2.52159e-06
ExecutionTime = 1.55 s  ClockTime = 4 s

Courant Number mean: 0.0855756 max: 0.450146
deltaT = 0.00294118
Time = 0.102941

AMI: Creating addressing and weights between 96 source faces and 96 target faces
AMI: Patch source sum(weights) min/max/average = 1.00011, 1.00011, 1.00011
AMI: Patch target sum(weights) min/max/average = 1.00011, 1.00011, 1.00011
GAMG:  Solving for pcorr, Initial residual = 1, Final residual = 0.0119938, No Iterations 6
time step continuity errors : sum local = 1.57746e-05, global = 2.72379e-07, cumulative = 2.79397e-06
PIMPLE: iteration 1
smoothSolver:  Solving for Ux, Initial residual = 0.0176212, Final residual = 0.000126087, No Iterations 2
smoothSolver:  Solving for Uy, Initial residual = 0.0176438, Final residual = 0.000125636, No Iterations 2
GAMG:  Solving for p, Initial residual = 0.0563082, Final residual = 0.000480503, No Iterations 3
time step continuity errors : sum local = 1.01702e-06, global = 8.4197e-08, cumulative = 2.87817e-06
PIMPLE: iteration 2
smoothSolver:  Solving for Ux, Initial residual = 0.000650749, Final residual = 6.46295e-07, No Iterations 3
smoothSolver:  Solving for Uy, Initial residual = 0.000661397, Final residual = 6.43762e-07, No Iterations 3
GAMG:  Solving for p, Initial residual = 0.0265368, Final residual = 6.1771e-07, No Iterations 13
time step continuity errors : sum local = 8.19191e-08, global = 8.06765e-08, cumulative = 2.95885e-06
ExecutionTime = 1.59 s  ClockTime = 4 s

Courant Number mean: 0.0947789 max: 0.494377
deltaT = 0.00294118
Time = 0.105882

AMI: Creating addressing and weights between 96 source faces and 96 target faces
AMI: Patch source sum(weights) min/max/average = 1.00015, 1.00015, 1.00015
AMI: Patch target sum(weights) min/max/average = 1.00015, 1.00015, 1.00015
GAMG:  Solving for pcorr, Initial residual = 1, Final residual = 0.0194998, No Iterations 5
time step continuity errors : sum local = 1.75535e-05, global = 3.45391e-07, cumulative = 3.30424e-06
PIMPLE: iteration 1
smoothSolver:  Solving for Ux, Initial residual = 0.0175639, Final residual = 0.000127294, No Iterations 2
smoothSolver:  Solving for Uy, Initial residual = 0.0175843, Final residual = 0.000126771, No Iterations 2
GAMG:  Solving for p, Initial residual = 0.0732183, Final residual = 0.00039143, No Iterations 3
time step continuity errors : sum local = 8.7368e-07, global = 1.10118e-07, cumulative = 3.41435e-06
PIMPLE: iteration 2
smoothSolver:  Solving for Ux, Initial residual = 0.000652919, Final residual = 6.51687e-07, No Iterations 3
smoothSolver:  Solving for Uy, Initial residual = 0.000664061, Final residual = 6.64559e-07, No Iterations 3
GAMG:  Solving for p, Initial residual = 0.0258943, Final residual = 7.69408e-07, No Iterations 13
time step continuity errors : sum local = 1.07527e-07, global = 1.05965e-07, cumulative = 3.52032e-06
ExecutionTime = 1.63 s  ClockTime = 4 s

Courant Number mean: 0.0952832 max: 0.491224
deltaT = 0.00294118
Time = 0.108824

AMI: Creating addressing and weights between 96 source faces and 96 target faces
AMI: Patch source sum(weights) min/max/average = 1.00026, 1.00026, 1.00026
AMI: Patch target sum(weights) min/max/average = 1.00026, 1.00026, 1.00026
GAMG:  Solving for pcorr, Initial residual = 1, Final residual = 0.016581, No Iterations 4
time step continuity errors : sum local = 1.72882e-05, global = 5.45133e-07, cumulative = 4.06545e-06
PIMPLE: iteration 1
smoothSolver:  Solving for Ux, Initial residual = 0.0171669, Final residual = 0.000128674, No Iterations 2
smoothSolver:  Solving for Uy, Initial residual = 0.017195, Final residual = 0.000128264, No Iterations 2
GAMG:  Solving for p, Initial residual = 0.071813, Final residual = 0.000410379, No Iterations 3
time step continuity errors : sum local = 9.93565e-07, global = 1.921e-07, cumulative = 4.25755e-06
PIMPLE: iteration 2
smoothSolver:  Solving for Ux, Initial residual = 0.000635333, Final residual = 6.32475e-07, No Iterations 3
smoothSolver:  Solving for Uy, Initial residual = 0.000646114, Final residual = 6.29924e-07, No Iterations 3
GAMG:  Solving for p, Initial residual = 0.0263005, Final residual = 7.78804e-07, No Iterations 10
time step continuity errors : sum local = 1.90939e-07, global = 1.89563e-07, cumulative = 4.44711e-06
ExecutionTime = 1.66 s  ClockTime = 4 s

Courant Number mean: 0.0957626 max: 0.491243
deltaT = 0.00294118
Time = 0.111765

AMI: Creating addressing and weights between 96 source faces and 96 target faces
AMI: Patch source sum(weights) min/max/average = 1.00021, 1.00021, 1.00021
AMI: Patch target sum(weights) min/max/average = 1.00021, 1.00021, 1.00021
GAMG:  Solving for pcorr, Initial residual = 1, Final residual = 0.0119929, No Iterations 6
time step continuity errors : sum local = 1.60554e-05, global = 8.17175e-07, cumulative = 5.26429e-06
PIMPLE: iteration 1
smoothSolver:  Solving for Ux, Initial residual = 0.0170268, Final residual = 0.000129949, No Iterations 2
smoothSolver:  Solving for Uy, Initial residual = 0.0170571, Final residual = 0.000129543, No Iterations 2
GAMG:  Solving for p, Initial residual = 0.0606778, Final residual = 0.000443793, No Iterations 3
time step continuity errors : sum local = 1.01172e-06, global = 1.52448e-07, cumulative = 5.41674e-06
PIMPLE: iteration 2
smoothSolver:  Solving for Ux, Initial residual = 0.000617426, Final residual = 6.11201e-07, No Iterations 3
smoothSolver:  Solving for Uy, Initial residual = 0.000628436, Final residual = 6.13305e-07, No Iterations 3
GAMG:  Solving for p, Initial residual = 0.0258152, Final residual = 8.2508e-07, No Iterations 13
time step continuity errors : sum local = 1.53273e-07, global = 1.51613e-07, cumulative = 5.56835e-06
ExecutionTime = 1.7 s  ClockTime = 4 s

Courant Number mean: 0.0962089 max: 0.489243
deltaT = 0.00294118
Time = 0.114706

AMI: Creating addressing and weights between 96 source faces and 96 target faces
AMI: Patch source sum(weights) min/max/average = 1.00001, 1.00001, 1.00001
AMI: Patch target sum(weights) min/max/average = 1.00001, 1.00001, 1.00001
GAMG:  Solving for pcorr, Initial residual = 1, Final residual = 0.016753, No Iterations 4
time step continuity errors : sum local = 1.71933e-05, global = 9.84877e-07, cumulative = 6.55323e-06
PIMPLE: iteration 1
smoothSolver:  Solving for Ux, Initial residual = 0.017103, Final residual = 0.000131344, No Iterations 2
smoothSolver:  Solving for Uy, Initial residual = 0.0171269, Final residual = 0.000130857, No Iterations 2
GAMG:  Solving for p, Initial residual = 0.0516082, Final residual = 0.000233864, No Iterations 4
time step continuity errors : sum local = 4.67618e-07, global = 9.19769e-09, cumulative = 6.56243e-06
PIMPLE: iteration 2
smoothSolver:  Solving for Ux, Initial residual = 0.000612626, Final residual = 6.2207e-07, No Iterations 3
smoothSolver:  Solving for Uy, Initial residual = 0.000622716, Final residual = 6.21869e-07, No Iterations 3
GAMG:  Solving for p, Initial residual = 0.0254011, Final residual = 7.01852e-07, No Iterations 10
time step continuity errors : sum local = 1.02772e-08, global = 9.04549e-09, cumulative = 6.57147e-06
ExecutionTime = 1.73 s  ClockTime = 4 s

Courant Number mean: 0.0966398 max: 0.488608
deltaT = 0.00294118
Time = 0.117647

AMI: Creating addressing and weights between 96 source faces and 96 target faces
AMI: Patch source sum(weights) min/max/average = 1.00022, 1.00022, 1.00022
AMI: Patch target sum(weights) min/max/average = 1.00022, 1.00022, 1.00022
GAMG:  Solving for pcorr, Initial residual = 1, Final residual = 0.0105038, No Iterations 6
time step continuity errors : sum local = 1.58809e-05, global = 1.07061e-06, cumulative = 7.64208e-06
PIMPLE: iteration 1
smoothSolver:  Solving for Ux, Initial residual = 0.0170018, Final residual = 0.000132591, No Iterations 2
smoothSolver:  Solving for Uy, Initial residual = 0.0170264, Final residual = 0.000132119, No Iterations 2
GAMG:  Solving for p, Initial residual = 0.0842458, Final residual = 0.000443312, No Iterations 3
time step continuity errors : sum local = 1.06385e-06, global = 1.63539e-07, cumulative = 7.80562e-06
PIMPLE: iteration 2
smoothSolver:  Solving for Ux, Initial residual = 0.00063624, Final residual = 6.61132e-07, No Iterations 3
smoothSolver:  Solving for Uy, Initial residual = 0.000647436, Final residual = 6.72435e-07, No Iterations 3
GAMG:  Solving for p, Initial residual = 0.0266672, Final residual = 6.41401e-07, No Iterations 13
time step continuity errors : sum local = 1.57149e-07, global = 1.55856e-07, cumulative = 7.96148e-06
ExecutionTime = 1.77 s  ClockTime = 4 s

Courant Number mean: 0.0970129 max: 0.487574
deltaT = 0.00294118
Time = 0.120588

AMI: Creating addressing and weights between 96 source faces and 96 target faces
AMI: Patch source sum(weights) min/max/average = 1.00026, 1.00026, 1.00026
AMI: Patch target sum(weights) min/max/average = 1.00026, 1.00026, 1.00026
GAMG:  Solving for pcorr, Initial residual = 1, Final residual = 0.0183412, No Iterations 4
time step continuity errors : sum local = 1.79508e-05, global = 1.46021e-06, cumulative = 9.42168e-06
PIMPLE: iteration 1
smoothSolver:  Solving for Ux, Initial residual = 0.0164192, Final residual = 0.00013294, No Iterations 2
smoothSolver:  Solving for Uy, Initial residual = 0.0164626, Final residual = 0.000132682, No Iterations 2
GAMG:  Solving for p, Initial residual = 0.0644291, Final residual = 0.000560697, No Iterations 3
time step continuity errors : sum local = 1.27275e-06, global = 1.86586e-07, cumulative = 9.60827e-06
PIMPLE: iteration 2
smoothSolver:  Solving for Ux, Initial residual = 0.00058573, Final residual = 6.14757e-07, No Iterations 3
smoothSolver:  Solving for Uy, Initial residual = 0.000596154, Final residual = 6.20789e-07, No Iterations 3
GAMG:  Solving for p, Initial residual = 0.0256625, Final residual = 6.20257e-07, No Iterations 11
time step continuity errors : sum local = 1.68662e-07, global = 1.67413e-07, cumulative = 9.77568e-06
ExecutionTime = 1.81 s  ClockTime = 4 s

Courant Number mean: 0.0974024 max: 0.484162
deltaT = 0.00294118
Time = 0.123529

AMI: Creating addressing and weights between 96 source faces and 96 target faces
AMI: Patch source sum(weights) min/max/average = 1.00013, 1.00013, 1.00013
AMI: Patch target sum(weights) min/max/average = 1.00013, 1.00013, 1.00013
GAMG:  Solving for pcorr, Initial residual = 1, Final residual = 0.01719, No Iterations 5
time step continuity errors : sum local = 1.7264e-05, global = 1.72563e-06, cumulative = 1.15013e-05
PIMPLE: iteration 1
smoothSolver:  Solving for Ux, Initial residual = 0.0164891, Final residual = 0.000134667, No Iterations 2
smoothSolver:  Solving for Uy, Initial residual = 0.016524, Final residual = 0.000134292, No Iterations 2
GAMG:  Solving for p, Initial residual = 0.053917, Final residual = 0.000402854, No Iterations 3
time step continuity errors : sum local = 8.56985e-07, global = 8.61856e-08, cumulative = 1.15875e-05
PIMPLE: iteration 2
smoothSolver:  Solving for Ux, Initial residual = 0.00057735, Final residual = 6.01706e-07, No Iterations 3
smoothSolver:  Solving for Uy, Initial residual = 0.000588773, Final residual = 6.16006e-07, No Iterations 3
GAMG:  Solving for p, Initial residual = 0.0246624, Final residual = 8.74674e-07, No Iterations 13
time step continuity errors : sum local = 7.69471e-08, global = 7.51833e-08, cumulative = 1.16627e-05
ExecutionTime = 1.85 s  ClockTime = 4 s

Courant Number mean: 0.0977928 max: 0.480157
deltaT = 0.00305882
Time = 0.126588

AMI: Creating addressing and weights between 96 source faces and 96 target faces
AMI: Patch source sum(weights) min/max/average = 1.00014, 1.00014, 1.00014
AMI: Patch target sum(weights) min/max/average = 1.00014, 1.00014, 1.00014
GAMG:  Solving for pcorr, Initial residual = 1, Final residual = 0.0174562, No Iterations 4
time step continuity errors : sum local = 1.91136e-05, global = 2.05398e-06, cumulative = 1.37167e-05
PIMPLE: iteration 1
smoothSolver:  Solving for Ux, Initial residual = 0.0171524, Final residual = 0.000150815, No Iterations 2
smoothSolver:  Solving for Uy, Initial residual = 0.0171823, Final residual = 0.000150463, No Iterations 2
GAMG:  Solving for p, Initial residual = 0.0730309, Final residual = 0.00054785, No Iterations 3
time step continuity errors : sum local = 1.24897e-06, global = 9.75016e-08, cumulative = 1.38142e-05
PIMPLE: iteration 2
smoothSolver:  Solving for Ux, Initial residual = 0.000632418, Final residual = 7.40751e-07, No Iterations 3
smoothSolver:  Solving for Uy, Initial residual = 0.000644225, Final residual = 7.54859e-07, No Iterations 3
GAMG:  Solving for p, Initial residual = 0.0258776, Final residual = 8.7827e-07, No Iterations 10
time step continuity errors : sum local = 9.82619e-08, global = 9.66236e-08, cumulative = 1.39108e-05
ExecutionTime = 1.88 s  ClockTime = 4 s

Courant Number mean: 0.102145 max: 0.499739
deltaT = 0.00305882
Time = 0.129647

AMI: Creating addressing and weights between 96 source faces and 96 target faces
AMI: Patch source sum(weights) min/max/average = 1.00026, 1.00026, 1.00026
AMI: Patch target sum(weights) min/max/average = 1.00026, 1.00026, 1.00026
GAMG:  Solving for pcorr, Initial residual = 1, Final residual = 0.0102981, No Iterations 6
time step continuity errors : sum local = 1.7205e-05, global = 2.39393e-06, cumulative = 1.63047e-05
PIMPLE: iteration 1
smoothSolver:  Solving for Ux, Initial residual = 0.0167707, Final residual = 0.000150306, No Iterations 2
smoothSolver:  Solving for Uy, Initial residual = 0.0168066, Final residual = 0.00015008, No Iterations 2
GAMG:  Solving for p, Initial residual = 0.0779064, Final residual = 0.000371024, No Iterations 3
time step continuity errors : sum local = 9.64792e-07, global = 1.76961e-07, cumulative = 1.64817e-05
PIMPLE: iteration 2
smoothSolver:  Solving for Ux, Initial residual = 0.000616665, Final residual = 7.50067e-07, No Iterations 3
smoothSolver:  Solving for Uy, Initial residual = 0.000629943, Final residual = 7.88997e-07, No Iterations 3
GAMG:  Solving for p, Initial residual = 0.026425, Final residual = 6.23016e-07, No Iterations 14
time step continuity errors : sum local = 1.8105e-07, global = 1.79857e-07, cumulative = 1.66615e-05
ExecutionTime = 1.92 s  ClockTime = 4 s

Courant Number mean: 0.10251 max: 0.500045
deltaT = 0.00293137
Time = 0.132578

AMI: Creating addressing and weights between 96 source faces and 96 target faces
AMI: Patch source sum(weights) min/max/average = 1.00021, 1.00021, 1.00021
AMI: Patch target sum(weights) min/max/average = 1.00021, 1.00021, 1.00021
GAMG:  Solving for pcorr, Initial residual = 1, Final residual = 0.0176404, No Iterations 4
time step continuity errors : sum local = 1.76026e-05, global = 2.58808e-06, cumulative = 1.92496e-05
PIMPLE: iteration 1
smoothSolver:  Solving for Ux, Initial residual = 0.0159259, Final residual = 0.000134475, No Iterations 2
smoothSolver:  Solving for Uy, Initial residual = 0.0159632, Final residual = 0.000134352, No Iterations 2
GAMG:  Solving for p, Initial residual = 0.0605684, Final residual = 0.000565538, No Iterations 3
time step continuity errors : sum local = 1.24869e-06, global = 1.30057e-07, cumulative = 1.93797e-05
PIMPLE: iteration 2
smoothSolver:  Solving for Ux, Initial residual = 0.000547428, Final residual = 6.02174e-07, No Iterations 3
smoothSolver:  Solving for Uy, Initial residual = 0.000559338, Final residual = 6.33876e-07, No Iterations 3
GAMG:  Solving for p, Initial residual = 0.0243791, Final residual = 8.17588e-07, No Iterations 11
time step continuity errors : sum local = 1.29568e-07, global = 1.27833e-07, cumulative = 1.95075e-05
ExecutionTime = 1.95 s  ClockTime = 5 s

Courant Number mean: 0.0985487 max: 0.477572
deltaT = 0.00306462
Time = 0.135643

AMI: Creating addressing and weights between 96 source faces and 96 target faces
AMI: Patch source sum(weights) min/max/average = 1.00002, 1.00002, 1.00002
AMI: Patch target sum(weights) min/max/average = 1.00002, 1.00002, 1.00002
GAMG:  Solving for pcorr, Initial residual = 1, Final residual = 0.0198203, No Iterations 5
time step continuity errors : sum local = 1.94968e-05, global = 3.10558e-06, cumulative = 2.26131e-05
PIMPLE: iteration 1
smoothSolver:  Solving for Ux, Initial residual = 0.0167115, Final residual = 0.000152679, No Iterations 2
smoothSolver:  Solving for Uy, Initial residual = 0.0167428, Final residual = 0.000152676, No Iterations 2
GAMG:  Solving for p, Initial residual = 0.0591342, Final residual = 0.000580281, No Iterations 3
time step continuity errors : sum local = 1.21367e-06, global = 1.58155e-08, cumulative = 2.26289e-05
PIMPLE: iteration 2
smoothSolver:  Solving for Ux, Initial residual = 0.000596595, Final residual = 7.18105e-07, No Iterations 3
smoothSolver:  Solving for Uy, Initial residual = 0.000609259, Final residual = 7.39752e-07, No Iterations 3
GAMG:  Solving for p, Initial residual = 0.0260229, Final residual = 7.94313e-07, No Iterations 13
time step continuity errors : sum local = 1.69996e-08, global = 1.5344e-08, cumulative = 2.26442e-05
ExecutionTime = 1.99 s  ClockTime = 5 s

Courant Number mean: 0.103396 max: 0.495546
deltaT = 0.00306462
Time = 0.138708

AMI: Creating addressing and weights between 96 source faces and 96 target faces
AMI: Patch source sum(weights) min/max/average = 1.00023, 1.00023, 1.00023
AMI: Patch target sum(weights) min/max/average = 1.00023, 1.00023, 1.00023
GAMG:  Solving for pcorr, Initial residual = 1, Final residual = 0.0199399, No Iterations 5
time step continuity errors : sum local = 1.97843e-05, global = 3.35177e-06, cumulative = 2.5996e-05
PIMPLE: iteration 1
smoothSolver:  Solving for Ux, Initial residual = 0.0165848, Final residual = 0.000153489, No Iterations 2
smoothSolver:  Solving for Uy, Initial residual = 0.0166125, Final residual = 0.000153596, No Iterations 2
GAMG:  Solving for p, Initial residual = 0.0936984, Final residual = 0.000686203, No Iterations 3
time step continuity errors : sum local = 1.57735e-06, global = 1.5979e-07, cumulative = 2.61558e-05
PIMPLE: iteration 2
smoothSolver:  Solving for Ux, Initial residual = 0.000619086, Final residual = 7.9178e-07, No Iterations 3
smoothSolver:  Solving for Uy, Initial residual = 0.000633127, Final residual = 8.47581e-07, No Iterations 3
GAMG:  Solving for p, Initial residual = 0.0271673, Final residual = 6.18237e-07, No Iterations 13
time step continuity errors : sum local = 1.49648e-07, global = 1.48353e-07, cumulative = 2.63042e-05
[...]
time step continuity errors : sum local = 3.77529e-08, global = -3.63623e-08, cumulative = 0.0207386
ExecutionTime = 20.51 s  ClockTime = 44 s

Courant Number mean: 0.0882772 max: 0.47561
deltaT = 0.0047619
Time = 1.9381

AMI: Creating addressing and weights between 96 source faces and 96 target faces
AMI: Patch source sum(weights) min/max/average = 1.00006, 1.00006, 1.00006
AMI: Patch target sum(weights) min/max/average = 1.00006, 1.00006, 1.00006
GAMG:  Solving for pcorr, Initial residual = 1, Final residual = 0.0180869, No Iterations 4
time step continuity errors : sum local = 0.000105254, global = 9.36931e-05, cumulative = 0.0208323
PIMPLE: iteration 1
smoothSolver:  Solving for Ux, Initial residual = 0.0159167, Final residual = 0.000135299, No Iterations 2
smoothSolver:  Solving for Uy, Initial residual = 0.0159158, Final residual = 0.000129364, No Iterations 2
GAMG:  Solving for p, Initial residual = 0.0878977, Final residual = 0.000368988, No Iterations 4
time step continuity errors : sum local = 7.8048e-07, global = -8.99986e-09, cumulative = 0.0208323
PIMPLE: iteration 2
smoothSolver:  Solving for Ux, Initial residual = 0.000494907, Final residual = 5.33409e-07, No Iterations 3
smoothSolver:  Solving for Uy, Initial residual = 0.000488106, Final residual = 4.25665e-07, No Iterations 3
GAMG:  Solving for p, Initial residual = 0.0415275, Final residual = 7.65625e-07, No Iterations 13
time step continuity errors : sum local = 1.05443e-08, global = -9.14687e-09, cumulative = 0.0208323
ExecutionTime = 20.55 s  ClockTime = 44 s

Courant Number mean: 0.0882637 max: 0.475023
deltaT = 0.0047619
Time = 1.94286

AMI: Creating addressing and weights between 96 source faces and 96 target faces
AMI: Patch source sum(weights) min/max/average = 1.00027, 1.00027, 1.00027
AMI: Patch target sum(weights) min/max/average = 1.00027, 1.00027, 1.00027
GAMG:  Solving for pcorr, Initial residual = 1, Final residual = 0.0125096, No Iterations 6
time step continuity errors : sum local = 0.00010142, global = 9.3554e-05, cumulative = 0.0209258
PIMPLE: iteration 1
smoothSolver:  Solving for Ux, Initial residual = 0.0158673, Final residual = 0.00013664, No Iterations 2
smoothSolver:  Solving for Uy, Initial residual = 0.0158722, Final residual = 0.000130567, No Iterations 2
GAMG:  Solving for p, Initial residual = 0.104644, Final residual = 0.000948281, No Iterations 3
time step continuity errors : sum local = 1.85333e-06, global = -3.43357e-08, cumulative = 0.0209258
PIMPLE: iteration 2
smoothSolver:  Solving for Ux, Initial residual = 0.000500433, Final residual = 5.48342e-07, No Iterations 3
smoothSolver:  Solving for Uy, Initial residual = 0.000484616, Final residual = 4.50215e-07, No Iterations 3
GAMG:  Solving for p, Initial residual = 0.0422874, Final residual = 7.06973e-07, No Iterations 14
time step continuity errors : sum local = 3.6143e-08, global = -3.4699e-08, cumulative = 0.0209257
ExecutionTime = 20.6 s  ClockTime = 44 s

Courant Number mean: 0.0882379 max: 0.47253
deltaT = 0.0047619
Time = 1.94762

AMI: Creating addressing and weights between 96 source faces and 96 target faces
AMI: Patch source sum(weights) min/max/average = 1.00003, 1.00003, 1.00003
AMI: Patch target sum(weights) min/max/average = 1.00003, 1.00003, 1.00003
GAMG:  Solving for pcorr, Initial residual = 1, Final residual = 0.011562, No Iterations 6
time step continuity errors : sum local = 0.000100664, global = 9.33476e-05, cumulative = 0.0210191
PIMPLE: iteration 1
smoothSolver:  Solving for Ux, Initial residual = 0.0156391, Final residual = 0.00013783, No Iterations 2
smoothSolver:  Solving for Uy, Initial residual = 0.0156558, Final residual = 0.00013168, No Iterations 2
GAMG:  Solving for p, Initial residual = 0.0822455, Final residual = 0.000407409, No Iterations 4
time step continuity errors : sum local = 8.40972e-07, global = -4.5021e-09, cumulative = 0.0210191
PIMPLE: iteration 2
smoothSolver:  Solving for Ux, Initial residual = 0.000484047, Final residual = 5.60755e-07, No Iterations 3
smoothSolver:  Solving for Uy, Initial residual = 0.000492015, Final residual = 4.60458e-07, No Iterations 3
GAMG:  Solving for p, Initial residual = 0.0412732, Final residual = 8.18446e-07, No Iterations 14
time step continuity errors : sum local = 6.10807e-09, global = -4.4203e-09, cumulative = 0.0210191
ExecutionTime = 20.65 s  ClockTime = 45 s

Courant Number mean: 0.0882485 max: 0.470007
deltaT = 0.0047619
Time = 1.95238

AMI: Creating addressing and weights between 96 source faces and 96 target faces
AMI: Patch source sum(weights) min/max/average = 1.00026, 1.00026, 1.00026
AMI: Patch target sum(weights) min/max/average = 1.00026, 1.00026, 1.00026
GAMG:  Solving for pcorr, Initial residual = 1, Final residual = 0.0134931, No Iterations 6
time step continuity errors : sum local = 0.000101639, global = 9.32452e-05, cumulative = 0.0211123
PIMPLE: iteration 1
smoothSolver:  Solving for Ux, Initial residual = 0.0157084, Final residual = 0.000139935, No Iterations 2
smoothSolver:  Solving for Uy, Initial residual = 0.0157316, Final residual = 0.000133785, No Iterations 2
GAMG:  Solving for p, Initial residual = 0.106556, Final residual = 0.000939806, No Iterations 3
time step continuity errors : sum local = 1.84834e-06, global = -3.48578e-08, cumulative = 0.0211123
PIMPLE: iteration 2
smoothSolver:  Solving for Ux, Initial residual = 0.000487298, Final residual = 5.74393e-07, No Iterations 3
smoothSolver:  Solving for Uy, Initial residual = 0.000484317, Final residual = 4.98148e-07, No Iterations 3
GAMG:  Solving for p, Initial residual = 0.0418698, Final residual = 6.20648e-07, No Iterations 14
time step continuity errors : sum local = 3.78486e-08, global = -3.65836e-08, cumulative = 0.0211123
ExecutionTime = 20.69 s  ClockTime = 45 s

Courant Number mean: 0.0881935 max: 0.468462
deltaT = 0.0047619
Time = 1.95714

AMI: Creating addressing and weights between 96 source faces and 96 target faces
AMI: Patch source sum(weights) min/max/average = 1.00011, 1.00011, 1.00011
AMI: Patch target sum(weights) min/max/average = 1.00011, 1.00011, 1.00011
GAMG:  Solving for pcorr, Initial residual = 1, Final residual = 0.0115535, No Iterations 6
time step continuity errors : sum local = 0.000100328, global = 9.30614e-05, cumulative = 0.0212053
PIMPLE: iteration 1
smoothSolver:  Solving for Ux, Initial residual = 0.0155056, Final residual = 0.000141717, No Iterations 2
smoothSolver:  Solving for Uy, Initial residual = 0.0155319, Final residual = 0.000135568, No Iterations 2
GAMG:  Solving for p, Initial residual = 0.0824009, Final residual = 0.00059895, No Iterations 3
time step continuity errors : sum local = 1.15877e-06, global = -1.73891e-08, cumulative = 0.0212053
PIMPLE: iteration 2
smoothSolver:  Solving for Ux, Initial residual = 0.000467126, Final residual = 5.90737e-07, No Iterations 3
smoothSolver:  Solving for Uy, Initial residual = 0.000487517, Final residual = 5.12155e-07, No Iterations 3
GAMG:  Solving for p, Initial residual = 0.0413838, Final residual = 6.5771e-07, No Iterations 15
time step continuity errors : sum local = 1.91394e-08, global = -1.79684e-08, cumulative = 0.0212053
ExecutionTime = 20.74 s  ClockTime = 45 s

Courant Number mean: 0.0881078 max: 0.466241
deltaT = 0.0047619
Time = 1.9619

AMI: Creating addressing and weights between 96 source faces and 96 target faces
AMI: Patch source sum(weights) min/max/average = 1.00024, 1.00024, 1.00024
AMI: Patch target sum(weights) min/max/average = 1.00024, 1.00024, 1.00024
GAMG:  Solving for pcorr, Initial residual = 1, Final residual = 0.0197976, No Iterations 4
time step continuity errors : sum local = 0.000105718, global = 9.29716e-05, cumulative = 0.0212983
PIMPLE: iteration 1
smoothSolver:  Solving for Ux, Initial residual = 0.0155722, Final residual = 0.000144046, No Iterations 2
smoothSolver:  Solving for Uy, Initial residual = 0.0156066, Final residual = 0.000138061, No Iterations 2
GAMG:  Solving for p, Initial residual = 0.0956062, Final residual = 0.000871249, No Iterations 3
time step continuity errors : sum local = 1.69979e-06, global = -4.17716e-08, cumulative = 0.0212982
PIMPLE: iteration 2
smoothSolver:  Solving for Ux, Initial residual = 0.000463796, Final residual = 6.01785e-07, No Iterations 3
smoothSolver:  Solving for Uy, Initial residual = 0.000481292, Final residual = 5.55852e-07, No Iterations 3
GAMG:  Solving for p, Initial residual = 0.0415192, Final residual = 8.10957e-07, No Iterations 14
time step continuity errors : sum local = 4.28169e-08, global = -4.11761e-08, cumulative = 0.0212982
ExecutionTime = 20.79 s  ClockTime = 45 s

Courant Number mean: 0.0879772 max: 0.464005
deltaT = 0.0047619
Time = 1.96667

AMI: Creating addressing and weights between 96 source faces and 96 target faces
AMI: Patch source sum(weights) min/max/average = 1.00017, 1.00017, 1.00017
AMI: Patch target sum(weights) min/max/average = 1.00017, 1.00017, 1.00017
GAMG:  Solving for pcorr, Initial residual = 1, Final residual = 0.0118615, No Iterations 6
time step continuity errors : sum local = 9.9902e-05, global = 9.28344e-05, cumulative = 0.021391
PIMPLE: iteration 1
smoothSolver:  Solving for Ux, Initial residual = 0.015432, Final residual = 0.000146016, No Iterations 2
smoothSolver:  Solving for Uy, Initial residual = 0.0154688, Final residual = 0.000140181, No Iterations 2
GAMG:  Solving for p, Initial residual = 0.0855101, Final residual = 0.000571163, No Iterations 3
time step continuity errors : sum local = 1.13392e-06, global = -3.36726e-08, cumulative = 0.021391
PIMPLE: iteration 2
smoothSolver:  Solving for Ux, Initial residual = 0.000451606, Final residual = 6.20017e-07, No Iterations 3
smoothSolver:  Solving for Uy, Initial residual = 0.000484903, Final residual = 5.63623e-07, No Iterations 3
GAMG:  Solving for p, Initial residual = 0.0413494, Final residual = 8.68629e-07, No Iterations 15
time step continuity errors : sum local = 3.33549e-08, global = -3.18259e-08, cumulative = 0.0213909
ExecutionTime = 20.84 s  ClockTime = 45 s

Courant Number mean: 0.0877936 max: 0.462101
deltaT = 0.0047619
Time = 1.97143

AMI: Creating addressing and weights between 96 source faces and 96 target faces
AMI: Patch source sum(weights) min/max/average = 1.0002, 1.0002, 1.0002
AMI: Patch target sum(weights) min/max/average = 1.0002, 1.0002, 1.0002
GAMG:  Solving for pcorr, Initial residual = 1, Final residual = 0.0180089, No Iterations 4
time step continuity errors : sum local = 0.000104152, global = 9.27592e-05, cumulative = 0.0214837
PIMPLE: iteration 1
smoothSolver:  Solving for Ux, Initial residual = 0.0154845, Final residual = 0.000148321, No Iterations 2
smoothSolver:  Solving for Uy, Initial residual = 0.0155286, Final residual = 0.000142743, No Iterations 2
GAMG:  Solving for p, Initial residual = 0.0913908, Final residual = 0.000681264, No Iterations 3
time step continuity errors : sum local = 1.34378e-06, global = -4.35556e-08, cumulative = 0.0214837
PIMPLE: iteration 2
smoothSolver:  Solving for Ux, Initial residual = 0.000443196, Final residual = 6.20864e-07, No Iterations 3
smoothSolver:  Solving for Uy, Initial residual = 0.00048335, Final residual = 6.11202e-07, No Iterations 3
GAMG:  Solving for p, Initial residual = 0.0408412, Final residual = 7.66699e-07, No Iterations 13
time step continuity errors : sum local = 4.36662e-08, global = -4.22846e-08, cumulative = 0.0214836
ExecutionTime = 20.88 s  ClockTime = 45 s

Courant Number mean: 0.0875942 max: 0.460341
deltaT = 0.0047619
Time = 1.97619

AMI: Creating addressing and weights between 96 source faces and 96 target faces
AMI: Patch source sum(weights) min/max/average = 1.00022, 1.00022, 1.00022
AMI: Patch target sum(weights) min/max/average = 1.00022, 1.00022, 1.00022
GAMG:  Solving for pcorr, Initial residual = 1, Final residual = 0.012178, No Iterations 6
time step continuity errors : sum local = 0.000100112, global = 9.26726e-05, cumulative = 0.0215763
PIMPLE: iteration 1
smoothSolver:  Solving for Ux, Initial residual = 0.0154221, Final residual = 0.000150103, No Iterations 2
smoothSolver:  Solving for Uy, Initial residual = 0.0154669, Final residual = 0.000144811, No Iterations 2
GAMG:  Solving for p, Initial residual = 0.0883048, Final residual = 0.000543872, No Iterations 3
time step continuity errors : sum local = 1.12386e-06, global = -5.11653e-08, cumulative = 0.0215762
PIMPLE: iteration 2
smoothSolver:  Solving for Ux, Initial residual = 0.000441143, Final residual = 6.44461e-07, No Iterations 3
smoothSolver:  Solving for Uy, Initial residual = 0.000488743, Final residual = 6.08329e-07, No Iterations 3
GAMG:  Solving for p, Initial residual = 0.0410864, Final residual = 7.11929e-07, No Iterations 12
time step continuity errors : sum local = 5.27424e-08, global = -5.14617e-08, cumulative = 0.0215762
ExecutionTime = 20.92 s  ClockTime = 45 s

Courant Number mean: 0.087399 max: 0.458888
deltaT = 0.0047619
Time = 1.98095

AMI: Creating addressing and weights between 96 source faces and 96 target faces
AMI: Patch source sum(weights) min/max/average = 1.00015, 1.00015, 1.00015
AMI: Patch target sum(weights) min/max/average = 1.00015, 1.00015, 1.00015
GAMG:  Solving for pcorr, Initial residual = 1, Final residual = 0.0182274, No Iterations 4
time step continuity errors : sum local = 0.000104353, global = 9.26025e-05, cumulative = 0.0216688
PIMPLE: iteration 1
smoothSolver:  Solving for Ux, Initial residual = 0.0154626, Final residual = 0.00015198, No Iterations 2
smoothSolver:  Solving for Uy, Initial residual = 0.0155025, Final residual = 0.000146941, No Iterations 2
GAMG:  Solving for p, Initial residual = 0.0857652, Final residual = 0.000695122, No Iterations 3
time step continuity errors : sum local = 1.38259e-06, global = -4.15132e-08, cumulative = 0.0216688
PIMPLE: iteration 2
smoothSolver:  Solving for Ux, Initial residual = 0.000432269, Final residual = 6.41923e-07, No Iterations 3
smoothSolver:  Solving for Uy, Initial residual = 0.000489441, Final residual = 6.41222e-07, No Iterations 3
GAMG:  Solving for p, Initial residual = 0.040476, Final residual = 8.52487e-07, No Iterations 11
time step continuity errors : sum local = 4.25195e-08, global = -4.10909e-08, cumulative = 0.0216687
ExecutionTime = 20.96 s  ClockTime = 45 s

Courant Number mean: 0.0871693 max: 0.457562
deltaT = 0.0047619
Time = 1.98571

AMI: Creating addressing and weights between 96 source faces and 96 target faces
AMI: Patch source sum(weights) min/max/average = 1.00025, 1.00025, 1.00025
AMI: Patch target sum(weights) min/max/average = 1.00025, 1.00025, 1.00025
GAMG:  Solving for pcorr, Initial residual = 1, Final residual = 0.0123367, No Iterations 6
time step continuity errors : sum local = 0.000100427, global = 9.25733e-05, cumulative = 0.0217613
PIMPLE: iteration 1
smoothSolver:  Solving for Ux, Initial residual = 0.0154999, Final residual = 0.00015362, No Iterations 2
smoothSolver:  Solving for Uy, Initial residual = 0.0155349, Final residual = 0.00014887, No Iterations 2
GAMG:  Solving for p, Initial residual = 0.093117, Final residual = 0.000488617, No Iterations 3
time step continuity errors : sum local = 1.04259e-06, global = -7.27771e-08, cumulative = 0.0217612
PIMPLE: iteration 2
smoothSolver:  Solving for Ux, Initial residual = 0.000435671, Final residual = 6.67942e-07, No Iterations 3
smoothSolver:  Solving for Uy, Initial residual = 0.000497521, Final residual = 6.45065e-07, No Iterations 3
GAMG:  Solving for p, Initial residual = 0.0405479, Final residual = 9.81688e-07, No Iterations 15
time step continuity errors : sum local = 7.36351e-08, global = -7.15589e-08, cumulative = 0.0217611
ExecutionTime = 21.01 s  ClockTime = 45 s

Courant Number mean: 0.0869353 max: 0.456803
deltaT = 0.0047619
Time = 1.99048

AMI: Creating addressing and weights between 96 source faces and 96 target faces
AMI: Patch source sum(weights) min/max/average = 1.00008, 1.00008, 1.00008
AMI: Patch target sum(weights) min/max/average = 1.00008, 1.00008, 1.00008
GAMG:  Solving for pcorr, Initial residual = 1, Final residual = 0.0182095, No Iterations 4
time step continuity errors : sum local = 0.000104192, global = 9.25041e-05, cumulative = 0.0218536
PIMPLE: iteration 1
smoothSolver:  Solving for Ux, Initial residual = 0.0155196, Final residual = 2.94435e-05, No Iterations 3
smoothSolver:  Solving for Uy, Initial residual = 0.0155624, Final residual = 0.000150707, No Iterations 2
GAMG:  Solving for p, Initial residual = 0.0825, Final residual = 0.000723509, No Iterations 3
time step continuity errors : sum local = 1.43329e-06, global = -2.83233e-08, cumulative = 0.0218536
PIMPLE: iteration 2
smoothSolver:  Solving for Ux, Initial residual = 0.00040257, Final residual = 3.7967e-07, No Iterations 3
smoothSolver:  Solving for Uy, Initial residual = 0.000495014, Final residual = 6.57473e-07, No Iterations 3
GAMG:  Solving for p, Initial residual = 0.0390541, Final residual = 7.7163e-07, No Iterations 12
time step continuity errors : sum local = 2.95918e-08, global = -2.79303e-08, cumulative = 0.0218536
ExecutionTime = 21.05 s  ClockTime = 45 s

Courant Number mean: 0.0867128 max: 0.456157
deltaT = 0.0047619
Time = 1.99524

AMI: Creating addressing and weights between 96 source faces and 96 target faces
AMI: Patch source sum(weights) min/max/average = 1.00027, 1.00027, 1.00027
AMI: Patch target sum(weights) min/max/average = 1.00027, 1.00027, 1.00027
GAMG:  Solving for pcorr, Initial residual = 1, Final residual = 0.0137308, No Iterations 6
time step continuity errors : sum local = 0.000101156, global = 9.25439e-05, cumulative = 0.0219461
PIMPLE: iteration 1
smoothSolver:  Solving for Ux, Initial residual = 0.0156207, Final residual = 2.98851e-05, No Iterations 3
smoothSolver:  Solving for Uy, Initial residual = 0.0156615, Final residual = 0.00015233, No Iterations 2
GAMG:  Solving for p, Initial residual = 0.0989221, Final residual = 0.000601164, No Iterations 3
time step continuity errors : sum local = 1.25908e-06, global = -8.92866e-08, cumulative = 0.021946
PIMPLE: iteration 2
smoothSolver:  Solving for Ux, Initial residual = 0.000412023, Final residual = 3.91215e-07, No Iterations 3
smoothSolver:  Solving for Uy, Initial residual = 0.000501637, Final residual = 6.48292e-07, No Iterations 3
GAMG:  Solving for p, Initial residual = 0.0399337, Final residual = 8.84043e-07, No Iterations 15
time step continuity errors : sum local = 9.18544e-08, global = -9.00085e-08, cumulative = 0.021946
ExecutionTime = 21.1 s  ClockTime = 46 s

Courant Number mean: 0.0864862 max: 0.45539
deltaT = 0.0047619
Time = 2

AMI: Creating addressing and weights between 96 source faces and 96 target faces
AMI: Patch source sum(weights) min/max/average = 1, 1, 1
AMI: Patch target sum(weights) min/max/average = 1, 1, 1
GAMG:  Solving for pcorr, Initial residual = 1, Final residual = 0.0183329, No Iterations 4
time step continuity errors : sum local = 0.000104259, global = 9.24645e-05, cumulative = 0.0220384
PIMPLE: iteration 1
smoothSolver:  Solving for Ux, Initial residual = 0.0155706, Final residual = 3.02084e-05, No Iterations 3
smoothSolver:  Solving for Uy, Initial residual = 0.0156229, Final residual = 0.000153361, No Iterations 2
GAMG:  Solving for p, Initial residual = 0.0819657, Final residual = 0.000370343, No Iterations 4
time step continuity errors : sum local = 7.81684e-07, global = -1.88492e-10, cumulative = 0.0220384
PIMPLE: iteration 2
smoothSolver:  Solving for Ux, Initial residual = 0.000398108, Final residual = 3.6238e-07, No Iterations 3
smoothSolver:  Solving for Uy, Initial residual = 0.0005048, Final residual = 6.56709e-07, No Iterations 3
GAMG:  Solving for p, Initial residual = 0.0394272, Final residual = 6.4736e-07, No Iterations 13
time step continuity errors : sum local = 1.26185e-09, global = -1.88758e-10, cumulative = 0.0220384
ExecutionTime = 21.15 s  ClockTime = 46 s

End

Finalising parallel run
