/*---------------------------------------------------------------------------*\
| =========                 |                                                 |
| \\      /  F ield         | OpenFOAM: The Open Source CFD Toolbox           |
|  \\    /   O peration     | Version:  v1606+                                |
|   \\  /    A nd           | Web:      www.OpenFOAM.com                      |
|    \\/     M anipulation  |                                                 |
\*---------------------------------------------------------------------------*/
Build  : v1606+
Exec   : interFoam
Date   : Oct 19 2016
Time   : 03:33:42
Host   : "79ba4d3dd43f"
PID    : 507
Case   : /openfoam/ras/damBreak
nProcs : 1
sigFpe : Enabling floating point exception trapping (FOAM_SIGFPE).
fileModificationChecking : Monitoring run-time modified files using timeStampMaster
allowSystemOperations : Allowing user-supplied system call operations

// * * * * * * * * * * * * * * * * * * * * * * * * * * * * * * * * * * * * * //
Create time

Create mesh for time = 0


PIMPLE: Operating solver in PISO mode

Reading field p_rgh

Reading field U

Reading/calculating face flux field phi

Reading transportProperties

Selecting incompressible transport model Newtonian
Selecting incompressible transport model Newtonian
Selecting turbulence model type RAS
Selecting RAS turbulence model kEpsilon
kEpsilonCoeffs
{
    Cmu             0.09;
    C1              1.44;
    C2              1.92;
    C3              -0.33;
    sigmak          1;
    sigmaEps        1.3;
}


Reading g

Reading hRef
Calculating field g.h

No MRF models present

No finite volume options present

DICPCG:  Solving for pcorr, Initial residual = 0, Final residual = 0, No Iterations 0
time step continuity errors : sum local = 0, global = 0, cumulative = 0
Courant Number mean: 0 max: 0

Starting time loop

Courant Number mean: 0 max: 0
Interface Courant Number mean: 0 max: 0
deltaT = 0.00119048
Time = 0.00119048

PIMPLE: iteration 1
smoothSolver:  Solving for alpha.water, Initial residual = 0, Final residual = 0, No Iterations 0
Phase-1 volume fraction = 0.130194  Min(alpha.water) = 0  Max(alpha.water) = 1
MULES: Correcting alpha.water
MULES: Correcting alpha.water
Phase-1 volume fraction = 0.130194  Min(alpha.water) = 0  Max(alpha.water) = 1
DICPCG:  Solving for p_rgh, Initial residual = 1, Final residual = 0.0421443, No Iterations 3
time step continuity errors : sum local = 0.000350496, global = -5.70682e-10, cumulative = -5.70682e-10
DICPCG:  Solving for p_rgh, Initial residual = 0.00452631, Final residual = 0.000197638, No Iterations 12
time step continuity errors : sum local = 1.63307e-05, global = -6.25215e-06, cumulative = -6.25272e-06
DICPCG:  Solving for p_rgh, Initial residual = 0.000284351, Final residual = 6.57438e-08, No Iterations 52
time step continuity errors : sum local = 1.13306e-08, global = 1.33756e-09, cumulative = -6.25139e-06
smoothSolver:  Solving for epsilon, Initial residual = 0.0207474, Final residual = 2.77402e-07, No Iterations 3
smoothSolver:  Solving for k, Initial residual = 1, Final residual = 2.02272e-07, No Iterations 5
ExecutionTime = 0.05 s  ClockTime = 0 s

Courant Number mean: 0.000573302 max: 0.00515206
Interface Courant Number mean: 0 max: 0
deltaT = 0.00139456
Time = 0.00258503

PIMPLE: iteration 1
smoothSolver:  Solving for alpha.water, Initial residual = 3.9665e-05, Final residual = 3.23077e-11, No Iterations 1
Phase-1 volume fraction = 0.130194  Min(alpha.water) = 0  Max(alpha.water) = 1
MULES: Correcting alpha.water
MULES: Correcting alpha.water
Phase-1 volume fraction = 0.130194  Min(alpha.water) = 0  Max(alpha.water) = 1
DICPCG:  Solving for p_rgh, Initial residual = 0.000833205, Final residual = 3.66401e-05, No Iterations 8
time step continuity errors : sum local = 7.53535e-06, global = 1.45514e-06, cumulative = -4.79624e-06
DICPCG:  Solving for p_rgh, Initial residual = 8.57991e-05, Final residual = 3.66371e-06, No Iterations 31
time step continuity errors : sum local = 7.57401e-07, global = -7.17766e-09, cumulative = -4.80342e-06
DICPCG:  Solving for p_rgh, Initial residual = 1.90297e-05, Final residual = 8.43231e-08, No Iterations 40
time step continuity errors : sum local = 1.73301e-08, global = 1.77647e-09, cumulative = -4.80165e-06
smoothSolver:  Solving for epsilon, Initial residual = 0.00336391, Final residual = 7.97044e-07, No Iterations 2
smoothSolver:  Solving for k, Initial residual = 0.441355, Final residual = 5.7834e-07, No Iterations 4
ExecutionTime = 0.07 s  ClockTime = 0 s

Courant Number mean: 0.00143986 max: 0.0121312
Interface Courant Number mean: 0 max: 0
deltaT = 0.001635
Time = 0.00422003

PIMPLE: iteration 1
smoothSolver:  Solving for alpha.water, Initial residual = 8.6019e-05, Final residual = 4.47778e-10, No Iterations 1
Phase-1 volume fraction = 0.130194  Min(alpha.water) = 0  Max(alpha.water) = 1
MULES: Correcting alpha.water
MULES: Correcting alpha.water
Phase-1 volume fraction = 0.130194  Min(alpha.water) = 0  Max(alpha.water) = 1
DICPCG:  Solving for p_rgh, Initial residual = 0.00118111, Final residual = 3.37456e-05, No Iterations 8
time step continuity errors : sum local = 9.03845e-06, global = -7.19743e-08, cumulative = -4.87362e-06
DICPCG:  Solving for p_rgh, Initial residual = 8.35473e-05, Final residual = 3.05298e-06, No Iterations 13
time step continuity errors : sum local = 8.26079e-07, global = -8.22252e-08, cumulative = -4.95584e-06
DICPCG:  Solving for p_rgh, Initial residual = 2.05919e-05, Final residual = 8.29016e-08, No Iterations 40
time step continuity errors : sum local = 2.23135e-08, global = 1.07142e-09, cumulative = -4.95477e-06
smoothSolver:  Solving for epsilon, Initial residual = 0.00345931, Final residual = 6.3326e-08, No Iterations 3
smoothSolver:  Solving for k, Initial residual = 0.250102, Final residual = 7.61376e-07, No Iterations 4
ExecutionTime = 0.08 s  ClockTime = 0 s

Courant Number mean: 0.00275163 max: 0.0246116
Interface Courant Number mean: 1.08206e-05 max: 0.0246115
deltaT = 0.0019075
Time = 0.00612753

PIMPLE: iteration 1
smoothSolver:  Solving for alpha.water, Initial residual = 0.000156087, Final residual = 3.44132e-09, No Iterations 1
Phase-1 volume fraction = 0.130194  Min(alpha.water) = 0  Max(alpha.water) = 1
MULES: Correcting alpha.water
MULES: Correcting alpha.water
Phase-1 volume fraction = 0.130194  Min(alpha.water) = -1.28815e-13  Max(alpha.water) = 1
DICPCG:  Solving for p_rgh, Initial residual = 0.00175517, Final residual = 8.00882e-05, No Iterations 3
time step continuity errors : sum local = 2.76564e-05, global = 1.94101e-08, cumulative = -4.93536e-06
DICPCG:  Solving for p_rgh, Initial residual = 0.000130204, Final residual = 3.53208e-06, No Iterations 13
time step continuity errors : sum local = 1.22191e-06, global = 1.9009e-09, cumulative = -4.93346e-06
DICPCG:  Solving for p_rgh, Initial residual = 2.57278e-05, Final residual = 9.80092e-08, No Iterations 40
time step continuity errors : sum local = 3.40976e-08, global = -4.91764e-10, cumulative = -4.93395e-06
smoothSolver:  Solving for epsilon, Initial residual = 0.00364238, Final residual = 1.27836e-07, No Iterations 3
smoothSolver:  Solving for k, Initial residual = 0.181391, Final residual = 1.311e-07, No Iterations 5
ExecutionTime = 0.09 s  ClockTime = 0 s

Courant Number mean: 0.00464784 max: 0.0424634
Interface Courant Number mean: 7.78534e-05 max: 0.0424632
deltaT = 0.00219362
Time = 0.00832115

PIMPLE: iteration 1
smoothSolver:  Solving for alpha.water, Initial residual = 0.000250795, Final residual = 9.26483e-15, No Iterations 2
Phase-1 volume fraction = 0.130194  Min(alpha.water) = 0  Max(alpha.water) = 1
MULES: Correcting alpha.water
MULES: Correcting alpha.water
Phase-1 volume fraction = 0.130194  Min(alpha.water) = -5.96885e-12  Max(alpha.water) = 1
DICPCG:  Solving for p_rgh, Initial residual = 0.00232731, Final residual = 0.000115009, No Iterations 1
time step continuity errors : sum local = 5.00707e-05, global = 1.41727e-07, cumulative = -4.79223e-06
DICPCG:  Solving for p_rgh, Initial residual = 0.000145164, Final residual = 6.63623e-06, No Iterations 10
time step continuity errors : sum local = 2.88899e-06, global = -4.93621e-09, cumulative = -4.79716e-06
DICPCG:  Solving for p_rgh, Initial residual = 4.09757e-05, Final residual = 9.25308e-08, No Iterations 46
time step continuity errors : sum local = 4.06292e-08, global = -3.54168e-10, cumulative = -4.79752e-06
smoothSolver:  Solving for epsilon, Initial residual = 0.00386259, Final residual = 2.38327e-07, No Iterations 3
smoothSolver:  Solving for k, Initial residual = 0.145127, Final residual = 2.37265e-07, No Iterations 5
ExecutionTime = 0.11 s  ClockTime = 0 s

Courant Number mean: 0.00724458 max: 0.064518
Interface Courant Number mean: 0.00020675 max: 0.0645177
deltaT = 0.00260493
Time = 0.0109261

PIMPLE: iteration 1
smoothSolver:  Solving for alpha.water, Initial residual = 0.000394059, Final residual = 7.00628e-14, No Iterations 2
Phase-1 volume fraction = 0.130194  Min(alpha.water) = 0  Max(alpha.water) = 1
MULES: Correcting alpha.water
MULES: Correcting alpha.water
Phase-1 volume fraction = 0.130194  Min(alpha.water) = -5.75131e-11  Max(alpha.water) = 1
DICPCG:  Solving for p_rgh, Initial residual = 0.00300467, Final residual = 0.000145479, No Iterations 1
time step continuity errors : sum local = 8.38738e-05, global = 2.24919e-07, cumulative = -4.5726e-06
DICPCG:  Solving for p_rgh, Initial residual = 0.00017647, Final residual = 7.95554e-06, No Iterations 10
time step continuity errors : sum local = 4.58643e-06, global = 1.66424e-07, cumulative = -4.40617e-06
DICPCG:  Solving for p_rgh, Initial residual = 5.19655e-05, Final residual = 9.17071e-08, No Iterations 47
time step continuity errors : sum local = 5.34126e-08, global = 1.44287e-09, cumulative = -4.40473e-06
smoothSolver:  Solving for epsilon, Initial residual = 0.0042547, Final residual = 5.19297e-07, No Iterations 3
smoothSolver:  Solving for k, Initial residual = 0.127403, Final residual = 5.40533e-07, No Iterations 5
ExecutionTime = 0.12 s  ClockTime = 0 s

Courant Number mean: 0.0113192 max: 0.0951277
Interface Courant Number mean: 0.000368982 max: 0.0951277
deltaT = 0.00300569
Time = 0.0139318

PIMPLE: iteration 1
smoothSolver:  Solving for alpha.water, Initial residual = 0.000583171, Final residual = 1.21703e-11, No Iterations 2
Phase-1 volume fraction = 0.130194  Min(alpha.water) = 0  Max(alpha.water) = 1
MULES: Correcting alpha.water
MULES: Correcting alpha.water
Phase-1 volume fraction = 0.130194  Min(alpha.water) = -2.73344e-10  Max(alpha.water) = 1
DICPCG:  Solving for p_rgh, Initial residual = 0.00362668, Final residual = 0.000177067, No Iterations 1
time step continuity errors : sum local = 0.000128729, global = 2.20712e-07, cumulative = -4.18402e-06
DICPCG:  Solving for p_rgh, Initial residual = 0.000209512, Final residual = 7.72019e-06, No Iterations 11
time step continuity errors : sum local = 5.61083e-06, global = 2.6294e-07, cumulative = -3.92108e-06
DICPCG:  Solving for p_rgh, Initial residual = 6.06975e-05, Final residual = 9.11771e-08, No Iterations 47
time step continuity errors : sum local = 6.70466e-08, global = 3.51122e-09, cumulative = -3.91757e-06
smoothSolver:  Solving for epsilon, Initial residual = 0.00455234, Final residual = 9.55938e-07, No Iterations 3
smoothSolver:  Solving for k, Initial residual = 0.113133, Final residual = 9.98059e-07, No Iterations 5
ExecutionTime = 0.14 s  ClockTime = 0 s

Courant Number mean: 0.0167127 max: 0.130296
Interface Courant Number mean: 0.0006162 max: 0.130296
deltaT = 0.00360682
Time = 0.0175386

PIMPLE: iteration 1
smoothSolver:  Solving for alpha.water, Initial residual = 0.000873783, Final residual = 1.86969e-10, No Iterations 2
Phase-1 volume fraction = 0.130194  Min(alpha.water) = 0  Max(alpha.water) = 1
MULES: Correcting alpha.water
MULES: Correcting alpha.water
Phase-1 volume fraction = 0.130194  Min(alpha.water) = -9.55854e-10  Max(alpha.water) = 1
DICPCG:  Solving for p_rgh, Initial residual = 0.00432814, Final residual = 8.42409e-05, No Iterations 2
time step continuity errors : sum local = 8.18391e-05, global = 1.63097e-07, cumulative = -3.75447e-06
DICPCG:  Solving for p_rgh, Initial residual = 0.000127342, Final residual = 5.79344e-06, No Iterations 12
time step continuity errors : sum local = 5.62658e-06, global = 1.66957e-07, cumulative = -3.58751e-06
DICPCG:  Solving for p_rgh, Initial residual = 4.5773e-05, Final residual = 9.50946e-08, No Iterations 45
time step continuity errors : sum local = 9.36152e-08, global = 4.34793e-09, cumulative = -3.58317e-06
smoothSolver:  Solving for epsilon, Initial residual = 0.00508882, Final residual = 2.96186e-07, No Iterations 4
smoothSolver:  Solving for k, Initial residual = 0.107445, Final residual = 4.95929e-07, No Iterations 6
ExecutionTime = 0.16 s  ClockTime = 0 s

Courant Number mean: 0.0251984 max: 0.181605
Interface Courant Number mean: 0.0009803 max: 0.181605
deltaT = 0.00405768
Time = 0.0215963

PIMPLE: iteration 1
smoothSolver:  Solving for alpha.water, Initial residual = 0.00121036, Final residual = 1.21631e-09, No Iterations 2
Phase-1 volume fraction = 0.130194  Min(alpha.water) = 0  Max(alpha.water) = 1
MULES: Correcting alpha.water
MULES: Correcting alpha.water
Phase-1 volume fraction = 0.130194  Min(alpha.water) = -3.67426e-09  Max(alpha.water) = 1
DICPCG:  Solving for p_rgh, Initial residual = 0.00496626, Final residual = 8.61367e-05, No Iterations 2
time step continuity errors : sum local = 0.000100864, global = 2.00053e-07, cumulative = -3.38311e-06
DICPCG:  Solving for p_rgh, Initial residual = 0.000130047, Final residual = 6.45624e-06, No Iterations 12
time step continuity errors : sum local = 7.55296e-06, global = 3.71152e-07, cumulative = -3.01196e-06
DICPCG:  Solving for p_rgh, Initial residual = 4.84304e-05, Final residual = 9.22032e-08, No Iterations 44
time step continuity errors : sum local = 1.09542e-07, global = 4.35779e-09, cumulative = -3.0076e-06
smoothSolver:  Solving for epsilon, Initial residual = 0.00533994, Final residual = 5.17483e-07, No Iterations 4
smoothSolver:  Solving for k, Initial residual = 0.0979336, Final residual = 8.47105e-07, No Iterations 6
ExecutionTime = 0.17 s  ClockTime = 0 s

Courant Number mean: 0.034684 max: 0.227651
Interface Courant Number mean: 0.00143929 max: 0.227651
deltaT = 0.00473396
Time = 0.0263302

PIMPLE: iteration 1
smoothSolver:  Solving for alpha.water, Initial residual = 0.00170239, Final residual = 7.27819e-09, No Iterations 2
Phase-1 volume fraction = 0.130194  Min(alpha.water) = 0  Max(alpha.water) = 1
MULES: Correcting alpha.water
MULES: Correcting alpha.water
Phase-1 volume fraction = 0.130194  Min(alpha.water) = -6.54129e-08  Max(alpha.water) = 1
DICPCG:  Solving for p_rgh, Initial residual = 0.00590347, Final residual = 9.68246e-05, No Iterations 2
time step continuity errors : sum local = 0.000144028, global = 1.79794e-07, cumulative = -2.82781e-06
DICPCG:  Solving for p_rgh, Initial residual = 0.00014451, Final residual = 5.67526e-06, No Iterations 13
time step continuity errors : sum local = 8.42468e-06, global = 2.82502e-07, cumulative = -2.54531e-06
DICPCG:  Solving for p_rgh, Initial residual = 5.26953e-05, Final residual = 8.69991e-08, No Iterations 44
time step continuity errors : sum local = 1.31648e-07, global = -4.55019e-09, cumulative = -2.54986e-06
smoothSolver:  Solving for epsilon, Initial residual = 0.00582353, Final residual = 2.08529e-07, No Iterations 5
smoothSolver:  Solving for k, Initial residual = 0.0953407, Final residual = 4.83467e-07, No Iterations 7
ExecutionTime = 0.18 s  ClockTime = 0 s

Courant Number mean: 0.0487424 max: 0.293392
Interface Courant Number mean: 0.00203712 max: 0.293392
deltaT = 0.00473396
Time = 0.0310642

PIMPLE: iteration 1
smoothSolver:  Solving for alpha.water, Initial residual = 0.002028, Final residual = 5.10534e-14, No Iterations 3
Phase-1 volume fraction = 0.130194  Min(alpha.water) = 0  Max(alpha.water) = 1
MULES: Correcting alpha.water
MULES: Correcting alpha.water
Phase-1 volume fraction = 0.130194  Min(alpha.water) = -2.11738e-07  Max(alpha.water) = 1
DICPCG:  Solving for p_rgh, Initial residual = 0.0066707, Final residual = 0.000104208, No Iterations 2
time step continuity errors : sum local = 0.00015597, global = -4.39166e-08, cumulative = -2.59378e-06
DICPCG:  Solving for p_rgh, Initial residual = 0.000154316, Final residual = 6.59219e-06, No Iterations 13
time step continuity errors : sum local = 9.83406e-06, global = 5.79235e-07, cumulative = -2.01454e-06
DICPCG:  Solving for p_rgh, Initial residual = 5.31224e-05, Final residual = 9.99894e-08, No Iterations 45
time step continuity errors : sum local = 1.52133e-07, global = -1.63796e-08, cumulative = -2.03092e-06
smoothSolver:  Solving for epsilon, Initial residual = 0.00565086, Final residual = 1.93307e-07, No Iterations 5
smoothSolver:  Solving for k, Initial residual = 0.0821166, Final residual = 3.84868e-07, No Iterations 7
ExecutionTime = 0.2 s  ClockTime = 0 s

Courant Number mean: 0.0569324 max: 0.328957
Interface Courant Number mean: 0.0023465 max: 0.328144
deltaT = 0.00473396
Time = 0.0357981

PIMPLE: iteration 1
smoothSolver:  Solving for alpha.water, Initial residual = 0.00234942, Final residual = 1.39754e-13, No Iterations 3
Phase-1 volume fraction = 0.130194  Min(alpha.water) = 0  Max(alpha.water) = 1
MULES: Correcting alpha.water
MULES: Correcting alpha.water
Phase-1 volume fraction = 0.130194  Min(alpha.water) = -4.49289e-07  Max(alpha.water) = 1
DICPCG:  Solving for p_rgh, Initial residual = 0.00773019, Final residual = 0.000115651, No Iterations 2
time step continuity errors : sum local = 0.000173907, global = -2.15987e-07, cumulative = -2.24691e-06
DICPCG:  Solving for p_rgh, Initial residual = 0.000169518, Final residual = 7.53203e-06, No Iterations 13
time step continuity errors : sum local = 1.12716e-05, global = 9.0928e-07, cumulative = -1.33763e-06
DICPCG:  Solving for p_rgh, Initial residual = 5.50535e-05, Final residual = 9.75636e-08, No Iterations 48
time step continuity errors : sum local = 1.49157e-07, global = -2.07487e-08, cumulative = -1.35838e-06
smoothSolver:  Solving for epsilon, Initial residual = 0.00600701, Final residual = 1.87638e-07, No Iterations 5
smoothSolver:  Solving for k, Initial residual = 0.0736065, Final residual = 3.1775e-07, No Iterations 7
ExecutionTime = 0.21 s  ClockTime = 0 s

Courant Number mean: 0.065029 max: 0.355209
Interface Courant Number mean: 0.00278493 max: 0.35121
deltaT = 0.00473396
Time = 0.0405321

PIMPLE: iteration 1
smoothSolver:  Solving for alpha.water, Initial residual = 0.00266626, Final residual = 2.54663e-11, No Iterations 3
Phase-1 volume fraction = 0.130194  Min(alpha.water) = 0  Max(alpha.water) = 1
MULES: Correcting alpha.water
MULES: Correcting alpha.water
Phase-1 volume fraction = 0.130194  Min(alpha.water) = -7.3394e-07  Max(alpha.water) = 1
DICPCG:  Solving for p_rgh, Initial residual = 0.00903527, Final residual = 0.000439993, No Iterations 1
time step continuity errors : sum local = 0.000664283, global = -2.22992e-07, cumulative = -1.58137e-06
DICPCG:  Solving for p_rgh, Initial residual = 0.000530749, Final residual = 2.19272e-05, No Iterations 11
time step continuity errors : sum local = 3.28731e-05, global = 6.07074e-06, cumulative = 4.48938e-06
DICPCG:  Solving for p_rgh, Initial residual = 0.000166534, Final residual = 8.98851e-08, No Iterations 51
time step continuity errors : sum local = 1.38053e-07, global = -1.23482e-08, cumulative = 4.47703e-06
smoothSolver:  Solving for epsilon, Initial residual = 0.00667651, Final residual = 1.90424e-07, No Iterations 5
smoothSolver:  Solving for k, Initial residual = 0.0679366, Final residual = 2.79846e-07, No Iterations 7
ExecutionTime = 0.23 s  ClockTime = 0 s

Courant Number mean: 0.0730492 max: 0.383058
Interface Courant Number mean: 0.00340223 max: 0.361104
deltaT = 0.00473396
Time = 0.045266

PIMPLE: iteration 1
smoothSolver:  Solving for alpha.water, Initial residual = 0.00298107, Final residual = 1.34652e-10, No Iterations 3
Phase-1 volume fraction = 0.130194  Min(alpha.water) = 0  Max(alpha.water) = 1
MULES: Correcting alpha.water
MULES: Correcting alpha.water
Phase-1 volume fraction = 0.130194  Min(alpha.water) = -1.01066e-06  Max(alpha.water) = 1
DICPCG:  Solving for p_rgh, Initial residual = 0.0105291, Final residual = 0.000506607, No Iterations 1
time step continuity errors : sum local = 0.000767526, global = -1.88208e-06, cumulative = 2.59495e-06
DICPCG:  Solving for p_rgh, Initial residual = 0.000613563, Final residual = 2.88283e-05, No Iterations 11
time step continuity errors : sum local = 4.32905e-05, global = 8.50763e-06, cumulative = 1.11026e-05
DICPCG:  Solving for p_rgh, Initial residual = 0.0001927, Final residual = 9.56246e-08, No Iterations 52
time step continuity errors : sum local = 1.47431e-07, global = -1.7051e-08, cumulative = 1.10855e-05
smoothSolver:  Solving for epsilon, Initial residual = 0.00738534, Final residual = 2.03478e-07, No Iterations 5
smoothSolver:  Solving for k, Initial residual = 0.0644105, Final residual = 2.65766e-07, No Iterations 7
ExecutionTime = 0.24 s  ClockTime = 1 s

Courant Number mean: 0.0810662 max: 0.409593
Interface Courant Number mean: 0.00464159 max: 0.381588
deltaT = 0.00473396
Time = 0.05

PIMPLE: iteration 1
smoothSolver:  Solving for alpha.water, Initial residual = 0.00329324, Final residual = 4.02756e-10, No Iterations 3
Phase-1 volume fraction = 0.130194  Min(alpha.water) = 0  Max(alpha.water) = 1
MULES: Correcting alpha.water
MULES: Correcting alpha.water
Phase-1 volume fraction = 0.130194  Min(alpha.water) = -1.21817e-06  Max(alpha.water) = 1
DICPCG:  Solving for p_rgh, Initial residual = 0.0122505, Final residual = 0.000587731, No Iterations 1
time step continuity errors : sum local = 0.000892954, global = -2.70452e-06, cumulative = 8.38101e-06
DICPCG:  Solving for p_rgh, Initial residual = 0.000715145, Final residual = 3.44695e-05, No Iterations 11
time step continuity errors : sum local = 5.18041e-05, global = 1.11092e-05, cumulative = 1.94902e-05
DICPCG:  Solving for p_rgh, Initial residual = 0.00022069, Final residual = 8.66864e-08, No Iterations 53
time step continuity errors : sum local = 1.33993e-07, global = -1.50056e-08, cumulative = 1.94752e-05
smoothSolver:  Solving for epsilon, Initial residual = 0.00817409, Final residual = 2.28992e-07, No Iterations 5
smoothSolver:  Solving for k, Initial residual = 0.0621123, Final residual = 2.71999e-07, No Iterations 7
ExecutionTime = 0.28 s  ClockTime = 1 s

Courant Number mean: 0.0890529 max: 0.44949
Interface Courant Number mean: 0.00525081 max: 0.405498
deltaT = 0.00555556
Time = 0.0555556

PIMPLE: iteration 1
smoothSolver:  Solving for alpha.water, Initial residual = 0.00422207, Final residual = 1.92264e-09, No Iterations 3
Phase-1 volume fraction = 0.130194  Min(alpha.water) = 0  Max(alpha.water) = 1
MULES: Correcting alpha.water
MULES: Correcting alpha.water
Phase-1 volume fraction = 0.130194  Min(alpha.water) = -3.14161e-06  Max(alpha.water) = 1
DICPCG:  Solving for p_rgh, Initial residual = 0.0161058, Final residual = 0.00026124, No Iterations 2
time step continuity errors : sum local = 0.000505816, global = -4.16572e-06, cumulative = 1.53095e-05
DICPCG:  Solving for p_rgh, Initial residual = 0.000354299, Final residual = 1.25001e-05, No Iterations 15
time step continuity errors : sum local = 2.38473e-05, global = 2.57394e-06, cumulative = 1.78835e-05
DICPCG:  Solving for p_rgh, Initial residual = 9.68982e-05, Final residual = 9.59208e-08, No Iterations 52
time step continuity errors : sum local = 1.89555e-07, global = -1.87656e-08, cumulative = 1.78647e-05
smoothSolver:  Solving for epsilon, Initial residual = 0.0106449, Final residual = 7.3665e-07, No Iterations 5
smoothSolver:  Solving for k, Initial residual = 0.0705203, Final residual = 9.80012e-07, No Iterations 7
ExecutionTime = 0.29 s  ClockTime = 1 s

Courant Number mean: 0.114962 max: 0.601194
Interface Courant Number mean: 0.0072687 max: 0.487491
deltaT = 0.00634921
Time = 0.0619048

PIMPLE: iteration 1
smoothSolver:  Solving for alpha.water, Initial residual = 0.00527866, Final residual = 6.38142e-09, No Iterations 3
Phase-1 volume fraction = 0.130194  Min(alpha.water) = 0  Max(alpha.water) = 1
MULES: Correcting alpha.water
MULES: Correcting alpha.water
Phase-1 volume fraction = 0.130194  Min(alpha.water) = -6.30084e-06  Max(alpha.water) = 1
DICPCG:  Solving for p_rgh, Initial residual = 0.0218506, Final residual = 0.000367493, No Iterations 2
time step continuity errors : sum local = 0.000868468, global = -1.10245e-06, cumulative = 1.67623e-05
DICPCG:  Solving for p_rgh, Initial residual = 0.000489575, Final residual = 1.84011e-05, No Iterations 15
time step continuity errors : sum local = 4.25546e-05, global = 5.80696e-06, cumulative = 2.25692e-05
DICPCG:  Solving for p_rgh, Initial residual = 0.000135893, Final residual = 8.80586e-08, No Iterations 41
time step continuity errors : sum local = 2.1239e-07, global = 5.70513e-08, cumulative = 2.26263e-05
smoothSolver:  Solving for epsilon, Initial residual = 0.0135685, Final residual = 4.66598e-07, No Iterations 6
smoothSolver:  Solving for k, Initial residual = 0.0777998, Final residual = 8.70987e-07, No Iterations 8
ExecutionTime = 0.31 s  ClockTime = 1 s

Courant Number mean: 0.144318 max: 0.797431
Interface Courant Number mean: 0.00927696 max: 0.587966
deltaT = 0.00634921
Time = 0.068254

PIMPLE: iteration 1
smoothSolver:  Solving for alpha.water, Initial residual = 0.00575098, Final residual = 4.43058e-11, No Iterations 4
Phase-1 volume fraction = 0.130194  Min(alpha.water) = 0  Max(alpha.water) = 1
MULES: Correcting alpha.water
MULES: Correcting alpha.water
Phase-1 volume fraction = 0.130194  Min(alpha.water) = -8.337e-06  Max(alpha.water) = 1.00004
DICPCG:  Solving for p_rgh, Initial residual = 0.0302144, Final residual = 0.000466616, No Iterations 2
time step continuity errors : sum local = 0.00110275, global = -2.7887e-06, cumulative = 1.98376e-05
DICPCG:  Solving for p_rgh, Initial residual = 0.000606932, Final residual = 2.52397e-05, No Iterations 15
time step continuity errors : sum local = 5.7862e-05, global = 8.62012e-06, cumulative = 2.84577e-05
DICPCG:  Solving for p_rgh, Initial residual = 0.000177488, Final residual = 8.56273e-08, No Iterations 54
time step continuity errors : sum local = 2.04982e-07, global = -1.7878e-08, cumulative = 2.84398e-05
smoothSolver:  Solving for epsilon, Initial residual = 0.0153267, Final residual = 6.07272e-07, No Iterations 6
smoothSolver:  Solving for k, Initial residual = 0.0749232, Final residual = 3.1807e-07, No Iterations 9
ExecutionTime = 0.33 s  ClockTime = 1 s

Courant Number mean: 0.156788 max: 0.917125
Interface Courant Number mean: 0.0108915 max: 0.620385
deltaT = 0.00634921
Time = 0.0746032

PIMPLE: iteration 1
smoothSolver:  Solving for alpha.water, Initial residual = 0.006201, Final residual = 6.04406e-11, No Iterations 4
Phase-1 volume fraction = 0.130194  Min(alpha.water) = 0  Max(alpha.water) = 1
MULES: Correcting alpha.water
MULES: Correcting alpha.water
Phase-1 volume fraction = 0.130194  Min(alpha.water) = -1.01277e-05  Max(alpha.water) = 1.00004
DICPCG:  Solving for p_rgh, Initial residual = 0.0204375, Final residual = 0.000469984, No Iterations 2
time step continuity errors : sum local = 0.00110933, global = -4.68468e-06, cumulative = 2.37551e-05
DICPCG:  Solving for p_rgh, Initial residual = 0.000595722, Final residual = 2.7408e-05, No Iterations 15
time step continuity errors : sum local = 6.37764e-05, global = 7.76451e-06, cumulative = 3.15196e-05
DICPCG:  Solving for p_rgh, Initial residual = 0.000177858, Final residual = 9.36546e-08, No Iterations 54
time step continuity errors : sum local = 2.27935e-07, global = -1.8047e-08, cumulative = 3.15016e-05
smoothSolver:  Solving for epsilon, Initial residual = 0.0173104, Final residual = 7.9626e-07, No Iterations 6
smoothSolver:  Solving for k, Initial residual = 0.0711992, Final residual = 3.72515e-07, No Iterations 9
ExecutionTime = 0.35 s  ClockTime = 1 s

Courant Number mean: 0.168869 max: 1.05438
Interface Courant Number mean: 0.0114727 max: 0.680112
deltaT = 0.00507937
Time = 0.0796825

PIMPLE: iteration 1
smoothSolver:  Solving for alpha.water, Initial residual = 0.0053329, Final residual = 5.76563e-09, No Iterations 3
Phase-1 volume fraction = 0.130194  Min(alpha.water) = -3.57588e-08  Max(alpha.water) = 1
MULES: Correcting alpha.water
MULES: Correcting alpha.water
Phase-1 volume fraction = 0.130194  Min(alpha.water) = -8.62429e-06  Max(alpha.water) = 1
DICPCG:  Solving for p_rgh, Initial residual = 0.0180461, Final residual = 0.000820374, No Iterations 1
time step continuity errors : sum local = 0.00144394, global = -3.32345e-06, cumulative = 2.81781e-05
DICPCG:  Solving for p_rgh, Initial residual = 0.00102648, Final residual = 4.82626e-05, No Iterations 12
time step continuity errors : sum local = 8.33385e-05, global = 1.68642e-05, cumulative = 4.50424e-05
DICPCG:  Solving for p_rgh, Initial residual = 0.000296096, Final residual = 7.77116e-08, No Iterations 54
time step continuity errors : sum local = 1.391e-07, global = -1.13912e-08, cumulative = 4.5031e-05
smoothSolver:  Solving for epsilon, Initial residual = 0.0157006, Final residual = 2.20972e-07, No Iterations 6
smoothSolver:  Solving for k, Initial residual = 0.0536986, Final residual = 8.85572e-07, No Iterations 7
ExecutionTime = 0.37 s  ClockTime = 1 s

Courant Number mean: 0.143012 max: 0.933755
Interface Courant Number mean: 0.00978899 max: 0.550363
deltaT = 0.00507937
Time = 0.0847619

PIMPLE: iteration 1
smoothSolver:  Solving for alpha.water, Initial residual = 0.0056334, Final residual = 6.24424e-09, No Iterations 3
Phase-1 volume fraction = 0.130194  Min(alpha.water) = -2.90794e-08  Max(alpha.water) = 1
MULES: Correcting alpha.water
MULES: Correcting alpha.water
Phase-1 volume fraction = 0.130194  Min(alpha.water) = -1.20963e-05  Max(alpha.water) = 1
DICPCG:  Solving for p_rgh, Initial residual = 0.020806, Final residual = 0.001032, No Iterations 1
time step continuity errors : sum local = 0.00181342, global = -5.57779e-06, cumulative = 3.94532e-05
DICPCG:  Solving for p_rgh, Initial residual = 0.00127859, Final residual = 4.29542e-05, No Iterations 13
time step continuity errors : sum local = 7.38379e-05, global = 1.60821e-05, cumulative = 5.55353e-05
DICPCG:  Solving for p_rgh, Initial residual = 0.000348019, Final residual = 8.51575e-08, No Iterations 54
time step continuity errors : sum local = 1.52262e-07, global = -1.50438e-08, cumulative = 5.55202e-05
smoothSolver:  Solving for epsilon, Initial residual = 0.0172789, Final residual = 2.78168e-07, No Iterations 6
smoothSolver:  Solving for k, Initial residual = 0.0509903, Final residual = 9.76741e-07, No Iterations 7
ExecutionTime = 0.38 s  ClockTime = 1 s

Courant Number mean: 0.150784 max: 1.04469
Interface Courant Number mean: 0.0107421 max: 0.592114
deltaT = 0.00380952
Time = 0.0885714

PIMPLE: iteration 1
smoothSolver:  Solving for alpha.water, Initial residual = 0.00444386, Final residual = 1.39741e-09, No Iterations 3
Phase-1 volume fraction = 0.130194  Min(alpha.water) = -2.46073e-08  Max(alpha.water) = 1
MULES: Correcting alpha.water
MULES: Correcting alpha.water
Phase-1 volume fraction = 0.130194  Min(alpha.water) = -6.85909e-06  Max(alpha.water) = 1
DICPCG:  Solving for p_rgh, Initial residual = 0.0194065, Final residual = 0.000300171, No Iterations 2
time step continuity errors : sum local = 0.000337515, global = -3.78315e-06, cumulative = 5.17371e-05
DICPCG:  Solving for p_rgh, Initial residual = 0.000394528, Final residual = 1.70927e-05, No Iterations 15
time step continuity errors : sum local = 1.8849e-05, global = 2.55495e-06, cumulative = 5.4292e-05
DICPCG:  Solving for p_rgh, Initial residual = 0.000101384, Final residual = 7.72784e-08, No Iterations 52
time step continuity errors : sum local = 8.77315e-08, global = -8.45214e-09, cumulative = 5.42836e-05
smoothSolver:  Solving for epsilon, Initial residual = 0.0143023, Final residual = 2.60973e-07, No Iterations 5
smoothSolver:  Solving for k, Initial residual = 0.0366667, Final residual = 5.56605e-07, No Iterations 6
ExecutionTime = 0.4 s  ClockTime = 1 s

Courant Number mean: 0.117604 max: 0.846817
Interface Courant Number mean: 0.00784621 max: 0.443842
deltaT = 0.00380952
Time = 0.092381

PIMPLE: iteration 1
smoothSolver:  Solving for alpha.water, Initial residual = 0.00461217, Final residual = 1.4813e-09, No Iterations 3
Phase-1 volume fraction = 0.130194  Min(alpha.water) = -2.06937e-08  Max(alpha.water) = 1
MULES: Correcting alpha.water
MULES: Correcting alpha.water
Phase-1 volume fraction = 0.130194  Min(alpha.water) = -7.80738e-06  Max(alpha.water) = 1
DICPCG:  Solving for p_rgh, Initial residual = 0.0237467, Final residual = 0.0003818, No Iterations 2
time step continuity errors : sum local = 0.000427246, global = -9.98101e-07, cumulative = 5.32855e-05
DICPCG:  Solving for p_rgh, Initial residual = 0.000475959, Final residual = 2.16183e-05, No Iterations 15
time step continuity errors : sum local = 2.36959e-05, global = 3.46577e-06, cumulative = 5.67512e-05
DICPCG:  Solving for p_rgh, Initial residual = 0.000125072, Final residual = 7.08454e-08, No Iterations 53
time step continuity errors : sum local = 8.02063e-08, global = -6.83756e-09, cumulative = 5.67444e-05
smoothSolver:  Solving for epsilon, Initial residual = 0.0152785, Final residual = 3.04266e-07, No Iterations 5
smoothSolver:  Solving for k, Initial residual = 0.0352922, Final residual = 5.9366e-07, No Iterations 6
ExecutionTime = 0.41 s  ClockTime = 1 s

Courant Number mean: 0.121988 max: 0.923726
Interface Courant Number mean: 0.00842092 max: 0.443501
deltaT = 0.00380952
Time = 0.0961905

PIMPLE: iteration 1
smoothSolver:  Solving for alpha.water, Initial residual = 0.00477854, Final residual = 1.83825e-09, No Iterations 3
Phase-1 volume fraction = 0.130194  Min(alpha.water) = -1.73074e-08  Max(alpha.water) = 1
MULES: Correcting alpha.water
MULES: Correcting alpha.water
Phase-1 volume fraction = 0.130194  Min(alpha.water) = -8.01693e-06  Max(alpha.water) = 1
DICPCG:  Solving for p_rgh, Initial residual = 0.0184044, Final residual = 0.000353177, No Iterations 2
time step continuity errors : sum local = 0.000407778, global = -1.37196e-06, cumulative = 5.53724e-05
DICPCG:  Solving for p_rgh, Initial residual = 0.000441711, Final residual = 1.57955e-05, No Iterations 16
time step continuity errors : sum local = 1.79842e-05, global = 3.45463e-06, cumulative = 5.88271e-05
DICPCG:  Solving for p_rgh, Initial residual = 0.000111411, Final residual = 7.30784e-08, No Iterations 53
time step continuity errors : sum local = 8.58387e-08, global = -6.26966e-09, cumulative = 5.88208e-05
smoothSolver:  Solving for epsilon, Initial residual = 0.0162789, Final residual = 3.51408e-07, No Iterations 5
smoothSolver:  Solving for k, Initial residual = 0.0340344, Final residual = 6.30095e-07, No Iterations 6
ExecutionTime = 0.43 s  ClockTime = 1 s

Courant Number mean: 0.126273 max: 1.01469
Interface Courant Number mean: 0.00834694 max: 0.457944
deltaT = 0.00190476
Time = 0.0980952

PIMPLE: iteration 1
smoothSolver:  Solving for alpha.water, Initial residual = 0.00247686, Final residual = 3.35731e-11, No Iterations 3
Phase-1 volume fraction = 0.130194  Min(alpha.water) = -3.68514e-08  Max(alpha.water) = 1
MULES: Correcting alpha.water
MULES: Correcting alpha.water
Phase-1 volume fraction = 0.130194  Min(alpha.water) = -1.26149e-06  Max(alpha.water) = 1
DICPCG:  Solving for p_rgh, Initial residual = 0.0100422, Final residual = 0.000373047, No Iterations 1
time step continuity errors : sum local = 0.000141629, global = -4.74299e-07, cumulative = 5.83465e-05
DICPCG:  Solving for p_rgh, Initial residual = 0.000426381, Final residual = 1.5718e-05, No Iterations 13
time step continuity errors : sum local = 5.91152e-06, global = 1.01725e-06, cumulative = 5.93637e-05
DICPCG:  Solving for p_rgh, Initial residual = 8.66737e-05, Final residual = 7.23916e-08, No Iterations 49
time step continuity errors : sum local = 2.76076e-08, global = 3.98018e-10, cumulative = 5.93641e-05
smoothSolver:  Solving for epsilon, Initial residual = 0.00865911, Final residual = 5.86541e-07, No Iterations 3
smoothSolver:  Solving for k, Initial residual = 0.0164721, Final residual = 2.81094e-07, No Iterations 4
ExecutionTime = 0.44 s  ClockTime = 1 s

Courant Number mean: 0.0642422 max: 0.527206
Interface Courant Number mean: 0.00420262 max: 0.233201
deltaT = 0.00190476
Time = 0.1

PIMPLE: iteration 1
smoothSolver:  Solving for alpha.water, Initial residual = 0.00252131, Final residual = 3.30327e-11, No Iterations 3
Phase-1 volume fraction = 0.130194  Min(alpha.water) = -3.4739e-08  Max(alpha.water) = 1
MULES: Correcting alpha.water
MULES: Correcting alpha.water
Phase-1 volume fraction = 0.130194  Min(alpha.water) = -1.28992e-06  Max(alpha.water) = 1
DICPCG:  Solving for p_rgh, Initial residual = 0.0104118, Final residual = 0.000415169, No Iterations 1
time step continuity errors : sum local = 0.000157077, global = -1.6656e-07, cumulative = 5.91976e-05
DICPCG:  Solving for p_rgh, Initial residual = 0.000476011, Final residual = 2.06998e-05, No Iterations 12
time step continuity errors : sum local = 7.75417e-06, global = 1.52459e-06, cumulative = 6.07222e-05
DICPCG:  Solving for p_rgh, Initial residual = 0.000101127, Final residual = 8.81744e-08, No Iterations 49
time step continuity errors : sum local = 3.35697e-08, global = -3.98359e-09, cumulative = 6.07182e-05
smoothSolver:  Solving for epsilon, Initial residual = 0.00890674, Final residual = 6.25515e-07, No Iterations 3
smoothSolver:  Solving for k, Initial residual = 0.0162464, Final residual = 2.90112e-07, No Iterations 4
ExecutionTime = 0.48 s  ClockTime = 1 s

Courant Number mean: 0.0653739 max: 0.550215
Interface Courant Number mean: 0.00432799 max: 0.249695
deltaT = 0.00217391
Time = 0.102174

PIMPLE: iteration 1
smoothSolver:  Solving for alpha.water, Initial residual = 0.00292989, Final residual = 8.37287e-11, No Iterations 3
Phase-1 volume fraction = 0.130194  Min(alpha.water) = -3.23845e-08  Max(alpha.water) = 1
MULES: Correcting alpha.water
MULES: Correcting alpha.water
Phase-1 volume fraction = 0.130194  Min(alpha.water) = -1.88372e-06  Max(alpha.water) = 1
DICPCG:  Solving for p_rgh, Initial residual = 0.0120031, Final residual = 0.000530737, No Iterations 1
time step continuity errors : sum local = 0.00024875, global = -2.86829e-07, cumulative = 6.04314e-05
DICPCG:  Solving for p_rgh, Initial residual = 0.00061303, Final residual = 2.80714e-05, No Iterations 12
time step continuity errors : sum local = 1.30074e-05, global = 2.97481e-06, cumulative = 6.34062e-05
DICPCG:  Solving for p_rgh, Initial residual = 0.000136174, Final residual = 9.73632e-08, No Iterations 50
time step continuity errors : sum local = 4.59722e-08, global = -5.01678e-09, cumulative = 6.34012e-05
smoothSolver:  Solving for epsilon, Initial residual = 0.0104795, Final residual = 9.63127e-08, No Iterations 4
smoothSolver:  Solving for k, Initial residual = 0.0182901, Final residual = 6.94358e-07, No Iterations 4
ExecutionTime = 0.49 s  ClockTime = 1 s

Courant Number mean: 0.0760436 max: 0.661858
Interface Courant Number mean: 0.00492815 max: 0.280368
deltaT = 0.0023913
Time = 0.104565

PIMPLE: iteration 1
smoothSolver:  Solving for alpha.water, Initial residual = 0.00329495, Final residual = 1.72673e-10, No Iterations 3
Phase-1 volume fraction = 0.130194  Min(alpha.water) = -2.98786e-08  Max(alpha.water) = 1
MULES: Correcting alpha.water
MULES: Correcting alpha.water
Phase-1 volume fraction = 0.130194  Min(alpha.water) = -3.32335e-06  Max(alpha.water) = 1
DICPCG:  Solving for p_rgh, Initial residual = 0.0135231, Final residual = 0.000633664, No Iterations 1
time step continuity errors : sum local = 0.00034692, global = -6.55774e-07, cumulative = 6.27454e-05
DICPCG:  Solving for p_rgh, Initial residual = 0.000742148, Final residual = 3.45032e-05, No Iterations 12
time step continuity errors : sum local = 1.86384e-05, global = 3.9817e-06, cumulative = 6.67271e-05
DICPCG:  Solving for p_rgh, Initial residual = 0.000165541, Final residual = 9.93949e-08, No Iterations 51
time step continuity errors : sum local = 5.48202e-08, global = -5.6754e-09, cumulative = 6.67214e-05
smoothSolver:  Solving for epsilon, Initial residual = 0.0120186, Final residual = 1.93875e-07, No Iterations 4
smoothSolver:  Solving for k, Initial residual = 0.0198589, Final residual = 1.56539e-07, No Iterations 5
ExecutionTime = 0.51 s  ClockTime = 1 s

Courant Number mean: 0.0853429 max: 0.773568
Interface Courant Number mean: 0.0055379 max: 0.309385
deltaT = 0.00267263
Time = 0.107238

PIMPLE: iteration 1
smoothSolver:  Solving for alpha.water, Initial residual = 0.00375875, Final residual = 3.92526e-10, No Iterations 3
Phase-1 volume fraction = 0.130194  Min(alpha.water) = -2.72028e-08  Max(alpha.water) = 1
MULES: Correcting alpha.water
MULES: Correcting alpha.water
Phase-1 volume fraction = 0.130194  Min(alpha.water) = -5.45135e-06  Max(alpha.water) = 1
DICPCG:  Solving for p_rgh, Initial residual = 0.0165754, Final residual = 0.000824945, No Iterations 1
time step continuity errors : sum local = 0.00054018, global = -9.46427e-07, cumulative = 6.5775e-05
DICPCG:  Solving for p_rgh, Initial residual = 0.000968624, Final residual = 4.68675e-05, No Iterations 12
time step continuity errors : sum local = 3.0181e-05, global = 6.82662e-06, cumulative = 7.26016e-05
DICPCG:  Solving for p_rgh, Initial residual = 0.000210743, Final residual = 6.43187e-08, No Iterations 53
time step continuity errors : sum local = 4.23886e-08, global = -2.05529e-09, cumulative = 7.25995e-05
smoothSolver:  Solving for epsilon, Initial residual = 0.0141198, Final residual = 4.24417e-07, No Iterations 4
smoothSolver:  Solving for k, Initial residual = 0.0218893, Final residual = 3.55669e-07, No Iterations 5
ExecutionTime = 0.52 s  ClockTime = 1 s

Courant Number mean: 0.0974195 max: 0.926317
Interface Courant Number mean: 0.00624723 max: 0.332998
deltaT = 0.00285081
Time = 0.110089

PIMPLE: iteration 1
smoothSolver:  Solving for alpha.water, Initial residual = 0.00410492, Final residual = 6.65349e-10, No Iterations 3
Phase-1 volume fraction = 0.130194  Min(alpha.water) = -2.45061e-08  Max(alpha.water) = 1
MULES: Correcting alpha.water
MULES: Correcting alpha.water
Phase-1 volume fraction = 0.130194  Min(alpha.water) = -7.21169e-06  Max(alpha.water) = 1
DICPCG:  Solving for p_rgh, Initial residual = 0.0184667, Final residual = 0.000313148, No Iterations 2
time step continuity errors : sum local = 0.000227197, global = -1.68102e-06, cumulative = 7.09185e-05
DICPCG:  Solving for p_rgh, Initial residual = 0.000399015, Final residual = 1.86175e-05, No Iterations 15
time step continuity errors : sum local = 1.33057e-05, global = 2.19451e-06, cumulative = 7.3113e-05
DICPCG:  Solving for p_rgh, Initial residual = 9.78509e-05, Final residual = 9.44953e-08, No Iterations 51
time step continuity errors : sum local = 6.91663e-08, global = -6.03389e-09, cumulative = 7.3107e-05
smoothSolver:  Solving for epsilon, Initial residual = 0.0159494, Final residual = 6.81437e-07, No Iterations 4
smoothSolver:  Solving for k, Initial residual = 0.0229545, Final residual = 5.71237e-07, No Iterations 5
ExecutionTime = 0.54 s  ClockTime = 1 s

Courant Number mean: 0.106113 max: 1.06335
Interface Courant Number mean: 0.00706423 max: 0.429356
deltaT = 0.00266076
Time = 0.112749

PIMPLE: iteration 1
smoothSolver:  Solving for alpha.water, Initial residual = 0.00391532, Final residual = 5.40248e-10, No Iterations 3
Phase-1 volume fraction = 0.130194  Min(alpha.water) = -2.21352e-08  Max(alpha.water) = 1
MULES: Correcting alpha.water
MULES: Correcting alpha.water
Phase-1 volume fraction = 0.130194  Min(alpha.water) = -5.49583e-06  Max(alpha.water) = 1
DICPCG:  Solving for p_rgh, Initial residual = 0.0165001, Final residual = 0.0002886, No Iterations 2
time step continuity errors : sum local = 0.00019337, global = -6.42864e-07, cumulative = 7.24641e-05
DICPCG:  Solving for p_rgh, Initial residual = 0.000359099, Final residual = 1.74664e-05, No Iterations 15
time step continuity errors : sum local = 1.15631e-05, global = 1.82708e-06, cumulative = 7.42912e-05
DICPCG:  Solving for p_rgh, Initial residual = 8.26777e-05, Final residual = 9.81934e-08, No Iterations 50
time step continuity errors : sum local = 6.63897e-08, global = -3.417e-09, cumulative = 7.42878e-05
smoothSolver:  Solving for epsilon, Initial residual = 0.0157793, Final residual = 4.77062e-07, No Iterations 4
smoothSolver:  Solving for k, Initial residual = 0.0210192, Final residual = 3.66207e-07, No Iterations 5
ExecutionTime = 0.55 s  ClockTime = 1 s

Courant Number mean: 0.100897 max: 1.05747
Interface Courant Number mean: 0.00646952 max: 0.396475
deltaT = 0.00248337
Time = 0.115233

PIMPLE: iteration 1
smoothSolver:  Solving for alpha.water, Initial residual = 0.00373536, Final residual = 3.99403e-10, No Iterations 3
Phase-1 volume fraction = 0.130194  Min(alpha.water) = -1.93066e-08  Max(alpha.water) = 1
MULES: Correcting alpha.water
MULES: Correcting alpha.water
Phase-1 volume fraction = 0.130194  Min(alpha.water) = -4.19025e-06  Max(alpha.water) = 1
DICPCG:  Solving for p_rgh, Initial residual = 0.0121401, Final residual = 0.000480449, No Iterations 1
time step continuity errors : sum local = 0.000291352, global = -4.59955e-07, cumulative = 7.38278e-05
DICPCG:  Solving for p_rgh, Initial residual = 0.000585464, Final residual = 2.48769e-05, No Iterations 12
time step continuity errors : sum local = 1.49034e-05, global = 3.28961e-06, cumulative = 7.71175e-05
DICPCG:  Solving for p_rgh, Initial residual = 0.000146833, Final residual = 9.17219e-08, No Iterations 50
time step continuity errors : sum local = 5.60523e-08, global = -3.36123e-09, cumulative = 7.71141e-05
smoothSolver:  Solving for epsilon, Initial residual = 0.0155493, Final residual = 3.29632e-07, No Iterations 4
smoothSolver:  Solving for k, Initial residual = 0.0193413, Final residual = 2.32876e-07, No Iterations 5
ExecutionTime = 0.56 s  ClockTime = 1 s

Courant Number mean: 0.0957496 max: 1.04303
Interface Courant Number mean: 0.00623547 max: 0.367022
deltaT = 0.00231781
Time = 0.117551

PIMPLE: iteration 1
smoothSolver:  Solving for alpha.water, Initial residual = 0.00356355, Final residual = 2.99561e-10, No Iterations 3
Phase-1 volume fraction = 0.130194  Min(alpha.water) = -1.75914e-08  Max(alpha.water) = 1
MULES: Correcting alpha.water
MULES: Correcting alpha.water
Phase-1 volume fraction = 0.130194  Min(alpha.water) = -2.0439e-06  Max(alpha.water) = 1
DICPCG:  Solving for p_rgh, Initial residual = 0.0123149, Final residual = 0.000506658, No Iterations 1
time step continuity errors : sum local = 0.000274003, global = -6.50013e-07, cumulative = 7.64641e-05
DICPCG:  Solving for p_rgh, Initial residual = 0.000604609, Final residual = 2.81633e-05, No Iterations 12
time step continuity errors : sum local = 1.50485e-05, global = 3.1986e-06, cumulative = 7.96627e-05
DICPCG:  Solving for p_rgh, Initial residual = 0.000145056, Final residual = 8.71253e-08, No Iterations 50
time step continuity errors : sum local = 4.74136e-08, global = -2.73348e-09, cumulative = 7.96599e-05
smoothSolver:  Solving for epsilon, Initial residual = 0.0153008, Final residual = 2.25085e-07, No Iterations 4
smoothSolver:  Solving for k, Initial residual = 0.0178477, Final residual = 1.4699e-07, No Iterations 5
ExecutionTime = 0.58 s  ClockTime = 1 s

Courant Number mean: 0.0907204 max: 1.02107
Interface Courant Number mean: 0.00586751 max: 0.630319
deltaT = 0.00216329
Time = 0.119714

PIMPLE: iteration 1
smoothSolver:  Solving for alpha.water, Initial residual = 0.0033878, Final residual = 2.17989e-10, No Iterations 3
Phase-1 volume fraction = 0.130194  Min(alpha.water) = -1.60871e-08  Max(alpha.water) = 1
MULES: Correcting alpha.water
MULES: Correcting alpha.water
Phase-1 volume fraction = 0.130194  Min(alpha.water) = -6.14015e-07  Max(alpha.water) = 1.00001
DICPCG:  Solving for p_rgh, Initial residual = 0.0122984, Final residual = 0.000516938, No Iterations 1
time step continuity errors : sum local = 0.000248794, global = -6.27198e-07, cumulative = 7.90327e-05
DICPCG:  Solving for p_rgh, Initial residual = 0.000608224, Final residual = 2.17994e-05, No Iterations 13
time step continuity errors : sum local = 1.03634e-05, global = 2.33145e-06, cumulative = 8.13642e-05
DICPCG:  Solving for p_rgh, Initial residual = 0.000132247, Final residual = 7.65065e-08, No Iterations 50
time step continuity errors : sum local = 3.69925e-08, global = -2.50705e-09, cumulative = 8.13617e-05
smoothSolver:  Solving for epsilon, Initial residual = 0.0150482, Final residual = 1.52142e-07, No Iterations 4
smoothSolver:  Solving for k, Initial residual = 0.0165184, Final residual = 7.873e-07, No Iterations 4
ExecutionTime = 0.59 s  ClockTime = 1 s

Courant Number mean: 0.0858729 max: 0.994129
Interface Courant Number mean: 0.00580044 max: 0.603878
deltaT = 0.00216329
Time = 0.121877

PIMPLE: iteration 1
smoothSolver:  Solving for alpha.water, Initial residual = 0.00343762, Final residual = 2.36446e-10, No Iterations 3
Phase-1 volume fraction = 0.130194  Min(alpha.water) = -1.46788e-08  Max(alpha.water) = 1
MULES: Correcting alpha.water
MULES: Correcting alpha.water
Phase-1 volume fraction = 0.130194  Min(alpha.water) = -6.83138e-07  Max(alpha.water) = 1
DICPCG:  Solving for p_rgh, Initial residual = 0.0133192, Final residual = 0.000608656, No Iterations 1
time step continuity errors : sum local = 0.000291821, global = -4.51769e-07, cumulative = 8.09099e-05
DICPCG:  Solving for p_rgh, Initial residual = 0.000711656, Final residual = 2.57523e-05, No Iterations 13
time step continuity errors : sum local = 1.21826e-05, global = 2.96269e-06, cumulative = 8.38726e-05
DICPCG:  Solving for p_rgh, Initial residual = 0.00014556, Final residual = 9.50541e-08, No Iterations 50
time step continuity errors : sum local = 4.57388e-08, global = -2.01616e-09, cumulative = 8.38706e-05
smoothSolver:  Solving for epsilon, Initial residual = 0.01585, Final residual = 1.59646e-07, No Iterations 4
smoothSolver:  Solving for k, Initial residual = 0.0164147, Final residual = 8.00613e-07, No Iterations 4
ExecutionTime = 0.61 s  ClockTime = 1 s

Courant Number mean: 0.0870432 max: 1.03738
Interface Courant Number mean: 0.00576344 max: 0.619006
deltaT = 0.00200877
Time = 0.123886

PIMPLE: iteration 1
smoothSolver:  Solving for alpha.water, Initial residual = 0.00324138, Final residual = 1.62982e-10, No Iterations 3
Phase-1 volume fraction = 0.130194  Min(alpha.water) = -1.3452e-08  Max(alpha.water) = 1
MULES: Correcting alpha.water
MULES: Correcting alpha.water
Phase-1 volume fraction = 0.130194  Min(alpha.water) = -5.86312e-07  Max(alpha.water) = 1
DICPCG:  Solving for p_rgh, Initial residual = 0.014092, Final residual = 0.000673003, No Iterations 1
time step continuity errors : sum local = 0.000283536, global = -5.48902e-07, cumulative = 8.33217e-05
DICPCG:  Solving for p_rgh, Initial residual = 0.000777334, Final residual = 3.71858e-05, No Iterations 12
time step continuity errors : sum local = 1.5459e-05, global = 3.11694e-06, cumulative = 8.64386e-05
DICPCG:  Solving for p_rgh, Initial residual = 0.000150703, Final residual = 8.41383e-08, No Iterations 50
time step continuity errors : sum local = 3.55162e-08, global = -1.88619e-09, cumulative = 8.64368e-05
smoothSolver:  Solving for epsilon, Initial residual = 0.015524, Final residual = 1.02515e-07, No Iterations 4
smoothSolver:  Solving for k, Initial residual = 0.0151351, Final residual = 5.12595e-07, No Iterations 4
ExecutionTime = 0.62 s  ClockTime = 1 s

Courant Number mean: 0.0818099 max: 1.00022
Interface Courant Number mean: 0.00525928 max: 0.587487
deltaT = 0.00186529
Time = 0.125751

PIMPLE: iteration 1
smoothSolver:  Solving for alpha.water, Initial residual = 0.00304817, Final residual = 1.13282e-10, No Iterations 3
Phase-1 volume fraction = 0.130194  Min(alpha.water) = -1.23819e-08  Max(alpha.water) = 1
MULES: Correcting alpha.water
MULES: Correcting alpha.water
Phase-1 volume fraction = 0.130194  Min(alpha.water) = -4.96673e-07  Max(alpha.water) = 1
DICPCG:  Solving for p_rgh, Initial residual = 0.0124628, Final residual = 0.000207431, No Iterations 2
time step continuity errors : sum local = 7.68532e-05, global = -5.49056e-07, cumulative = 8.58877e-05
DICPCG:  Solving for p_rgh, Initial residual = 0.00025782, Final residual = 1.10941e-05, No Iterations 15
time step continuity errors : sum local = 4.07184e-06, global = 7.83404e-07, cumulative = 8.66711e-05
DICPCG:  Solving for p_rgh, Initial residual = 5.48055e-05, Final residual = 8.69479e-08, No Iterations 49
time step continuity errors : sum local = 3.2352e-08, global = -6.2824e-10, cumulative = 8.66705e-05
smoothSolver:  Solving for epsilon, Initial residual = 0.0151639, Final residual = 6.49928e-08, No Iterations 4
smoothSolver:  Solving for k, Initial residual = 0.013976, Final residual = 3.25161e-07, No Iterations 4
ExecutionTime = 0.64 s  ClockTime = 1 s

Courant Number mean: 0.0767934 max: 0.960625
Interface Courant Number mean: 0.00499553 max: 0.687919
deltaT = 0.00186529
Time = 0.127617

PIMPLE: iteration 1
smoothSolver:  Solving for alpha.water, Initial residual = 0.00308252, Final residual = 1.22529e-10, No Iterations 3
Phase-1 volume fraction = 0.130194  Min(alpha.water) = -1.13791e-08  Max(alpha.water) = 1
MULES: Correcting alpha.water
MULES: Correcting alpha.water
Phase-1 volume fraction = 0.130194  Min(alpha.water) = -5.3209e-07  Max(alpha.water) = 1.00001
DICPCG:  Solving for p_rgh, Initial residual = 0.0144621, Final residual = 0.000276886, No Iterations 2
time step continuity errors : sum local = 0.000105793, global = -1.69275e-07, cumulative = 8.65012e-05
DICPCG:  Solving for p_rgh, Initial residual = 0.000341178, Final residual = 1.44461e-05, No Iterations 16
time step continuity errors : sum local = 5.46027e-06, global = 9.39591e-07, cumulative = 8.74408e-05
DICPCG:  Solving for p_rgh, Initial residual = 6.74876e-05, Final residual = 9.08782e-08, No Iterations 50
time step continuity errors : sum local = 3.47985e-08, global = -7.84141e-10, cumulative = 8.744e-05
smoothSolver:  Solving for epsilon, Initial residual = 0.0159427, Final residual = 6.71752e-08, No Iterations 4
smoothSolver:  Solving for k, Initial residual = 0.0139639, Final residual = 3.28297e-07, No Iterations 4
ExecutionTime = 0.66 s  ClockTime = 1 s

Courant Number mean: 0.0775954 max: 0.995037
Interface Courant Number mean: 0.00469444 max: 0.706832
deltaT = 0.00186529
Time = 0.129482

PIMPLE: iteration 1
smoothSolver:  Solving for alpha.water, Initial residual = 0.00311789, Final residual = 1.32091e-10, No Iterations 3
Phase-1 volume fraction = 0.130194  Min(alpha.water) = -1.04418e-08  Max(alpha.water) = 1
MULES: Correcting alpha.water
MULES: Correcting alpha.water
Phase-1 volume fraction = 0.130194  Min(alpha.water) = -5.58841e-07  Max(alpha.water) = 1
DICPCG:  Solving for p_rgh, Initial residual = 0.0112358, Final residual = 0.000537118, No Iterations 1
time step continuity errors : sum local = 0.00020758, global = -1.99138e-07, cumulative = 8.72409e-05
DICPCG:  Solving for p_rgh, Initial residual = 0.000636442, Final residual = 2.32632e-05, No Iterations 13
time step continuity errors : sum local = 8.92063e-06, global = 1.94484e-06, cumulative = 8.91857e-05
DICPCG:  Solving for p_rgh, Initial residual = 0.000125629, Final residual = 8.61521e-08, No Iterations 50
time step continuity errors : sum local = 3.34764e-08, global = -4.77445e-10, cumulative = 8.91852e-05
smoothSolver:  Solving for epsilon, Initial residual = 0.0168018, Final residual = 6.9169e-08, No Iterations 4
smoothSolver:  Solving for k, Initial residual = 0.0139735, Final residual = 3.30831e-07, No Iterations 4
ExecutionTime = 0.67 s  ClockTime = 1 s

Courant Number mean: 0.0783747 max: 1.03163
Interface Courant Number mean: 0.00490451 max: 0.723227
deltaT = 0.00170985
Time = 0.131192

PIMPLE: iteration 1
smoothSolver:  Solving for alpha.water, Initial residual = 0.00290091, Final residual = 8.27473e-11, No Iterations 3
Phase-1 volume fraction = 0.130194  Min(alpha.water) = -4.26536e-08  Max(alpha.water) = 1
MULES: Correcting alpha.water
MULES: Correcting alpha.water
Phase-1 volume fraction = 0.130194  Min(alpha.water) = -4.29939e-07  Max(alpha.water) = 1
DICPCG:  Solving for p_rgh, Initial residual = 0.0095569, Final residual = 0.000343551, No Iterations 1
time step continuity errors : sum local = 0.000115422, global = -3.19042e-07, cumulative = 8.88662e-05
DICPCG:  Solving for p_rgh, Initial residual = 0.000412253, Final residual = 1.61733e-05, No Iterations 13
time step continuity errors : sum local = 5.38576e-06, global = 9.49116e-07, cumulative = 8.98153e-05
DICPCG:  Solving for p_rgh, Initial residual = 9.18969e-05, Final residual = 8.42576e-08, No Iterations 49
time step continuity errors : sum local = 2.83894e-08, global = 1.62459e-10, cumulative = 8.98155e-05
smoothSolver:  Solving for epsilon, Initial residual = 0.0161554, Final residual = 7.10694e-07, No Iterations 3
smoothSolver:  Solving for k, Initial residual = 0.0127897, Final residual = 1.91688e-07, No Iterations 4
ExecutionTime = 0.69 s  ClockTime = 1 s

Courant Number mean: 0.0724974 max: 0.974875
Interface Courant Number mean: 0.00470215 max: 0.673854
deltaT = 0.00170985
Time = 0.132902

PIMPLE: iteration 1
smoothSolver:  Solving for alpha.water, Initial residual = 0.00293767, Final residual = 9.04459e-11, No Iterations 3
Phase-1 volume fraction = 0.130194  Min(alpha.water) = -3.88387e-08  Max(alpha.water) = 1
MULES: Correcting alpha.water
MULES: Correcting alpha.water
Phase-1 volume fraction = 0.130194  Min(alpha.water) = -4.1281e-07  Max(alpha.water) = 1
DICPCG:  Solving for p_rgh, Initial residual = 0.010041, Final residual = 0.000376649, No Iterations 1
time step continuity errors : sum local = 0.000126288, global = -1.46507e-07, cumulative = 8.9669e-05
DICPCG:  Solving for p_rgh, Initial residual = 0.000448442, Final residual = 1.84465e-05, No Iterations 13
time step continuity errors : sum local = 6.12825e-06, global = 1.02006e-06, cumulative = 9.0689e-05
DICPCG:  Solving for p_rgh, Initial residual = 9.87093e-05, Final residual = 9.76931e-08, No Iterations 49
time step continuity errors : sum local = 3.28479e-08, global = 3.0166e-10, cumulative = 9.06893e-05
smoothSolver:  Solving for epsilon, Initial residual = 0.0169029, Final residual = 7.2982e-07, No Iterations 3
smoothSolver:  Solving for k, Initial residual = 0.0128154, Final residual = 1.93446e-07, No Iterations 4
ExecutionTime = 0.7 s  ClockTime = 1 s

Courant Number mean: 0.0731535 max: 1.0054
Interface Courant Number mean: 0.00493498 max: 0.801206
deltaT = 0.00155441
Time = 0.134456

PIMPLE: iteration 1
smoothSolver:  Solving for alpha.water, Initial residual = 0.00269525, Final residual = 5.34778e-11, No Iterations 3
Phase-1 volume fraction = 0.130194  Min(alpha.water) = -3.56734e-08  Max(alpha.water) = 1
MULES: Correcting alpha.water
MULES: Correcting alpha.water
Phase-1 volume fraction = 0.130194  Min(alpha.water) = -2.83373e-07  Max(alpha.water) = 1
DICPCG:  Solving for p_rgh, Initial residual = 0.00985503, Final residual = 0.000378176, No Iterations 1
time step continuity errors : sum local = 0.000107489, global = -1.40884e-07, cumulative = 9.05484e-05
DICPCG:  Solving for p_rgh, Initial residual = 0.000446197, Final residual = 1.70852e-05, No Iterations 13
time step continuity errors : sum local = 4.81382e-06, global = 9.13571e-07, cumulative = 9.1462e-05
DICPCG:  Solving for p_rgh, Initial residual = 8.78488e-05, Final residual = 8.16399e-08, No Iterations 49
time step continuity errors : sum local = 2.32505e-08, global = 1.0036e-10, cumulative = 9.14621e-05
smoothSolver:  Solving for epsilon, Initial residual = 0.0159929, Final residual = 4.42412e-07, No Iterations 3
smoothSolver:  Solving for k, Initial residual = 0.0116304, Final residual = 1.04982e-07, No Iterations 4
ExecutionTime = 0.72 s  ClockTime = 1 s

Courant Number mean: 0.0670298 max: 0.937246
Interface Courant Number mean: 0.00444684 max: 0.740411
deltaT = 0.00155441
Time = 0.13601

PIMPLE: iteration 1
smoothSolver:  Solving for alpha.water, Initial residual = 0.00271291, Final residual = 5.61703e-11, No Iterations 3
Phase-1 volume fraction = 0.130194  Min(alpha.water) = -3.27851e-08  Max(alpha.water) = 1
MULES: Correcting alpha.water
MULES: Correcting alpha.water
Phase-1 volume fraction = 0.130194  Min(alpha.water) = -2.65853e-07  Max(alpha.water) = 1.00002
DICPCG:  Solving for p_rgh, Initial residual = 0.0103556, Final residual = 0.000438484, No Iterations 1
time step continuity errors : sum local = 0.000124264, global = -1.42377e-07, cumulative = 9.13197e-05
DICPCG:  Solving for p_rgh, Initial residual = 0.00051169, Final residual = 2.09705e-05, No Iterations 13
time step continuity errors : sum local = 5.88975e-06, global = 9.78967e-07, cumulative = 9.22987e-05
DICPCG:  Solving for p_rgh, Initial residual = 9.90779e-05, Final residual = 9.48682e-08, No Iterations 49
time step continuity errors : sum local = 2.69427e-08, global = -7.17208e-11, cumulative = 9.22986e-05
smoothSolver:  Solving for epsilon, Initial residual = 0.016581, Final residual = 4.50181e-07, No Iterations 3
smoothSolver:  Solving for k, Initial residual = 0.0116295, Final residual = 1.05476e-07, No Iterations 4
ExecutionTime = 0.73 s  ClockTime = 1 s

Courant Number mean: 0.0675409 max: 0.960807
Interface Courant Number mean: 0.00442532 max: 0.75015
deltaT = 0.00155441
Time = 0.137565

PIMPLE: iteration 1
smoothSolver:  Solving for alpha.water, Initial residual = 0.00274104, Final residual = 5.87385e-11, No Iterations 3
Phase-1 volume fraction = 0.130194  Min(alpha.water) = -3.01475e-08  Max(alpha.water) = 1
MULES: Correcting alpha.water
MULES: Correcting alpha.water
Phase-1 volume fraction = 0.130194  Min(alpha.water) = -2.39641e-07  Max(alpha.water) = 1.00001
DICPCG:  Solving for p_rgh, Initial residual = 0.0111498, Final residual = 0.000509781, No Iterations 1
time step continuity errors : sum local = 0.000144016, global = -1.55356e-07, cumulative = 9.21433e-05
DICPCG:  Solving for p_rgh, Initial residual = 0.000590722, Final residual = 2.3705e-05, No Iterations 13
time step continuity errors : sum local = 6.63612e-06, global = 1.17257e-06, cumulative = 9.33158e-05
DICPCG:  Solving for p_rgh, Initial residual = 0.000107794, Final residual = 7.1449e-08, No Iterations 50
time step continuity errors : sum local = 2.02348e-08, global = -8.94789e-10, cumulative = 9.33149e-05
smoothSolver:  Solving for epsilon, Initial residual = 0.0171654, Final residual = 4.56585e-07, No Iterations 3
smoothSolver:  Solving for k, Initial residual = 0.0116278, Final residual = 1.05644e-07, No Iterations 4
ExecutionTime = 0.75 s  ClockTime = 2 s

Courant Number mean: 0.0680325 max: 0.984086
Interface Courant Number mean: 0.00431546 max: 0.754576
deltaT = 0.00155441
Time = 0.139119

PIMPLE: iteration 1
smoothSolver:  Solving for alpha.water, Initial residual = 0.00276656, Final residual = 6.1851e-11, No Iterations 3
Phase-1 volume fraction = 0.130194  Min(alpha.water) = -2.77369e-08  Max(alpha.water) = 1
MULES: Correcting alpha.water
MULES: Correcting alpha.water
Phase-1 volume fraction = 0.130194  Min(alpha.water) = -2.07471e-07  Max(alpha.water) = 1
DICPCG:  Solving for p_rgh, Initial residual = 0.0112513, Final residual = 0.00021892, No Iterations 2
time step continuity errors : sum local = 6.16976e-05, global = -1.8698e-07, cumulative = 9.3128e-05
DICPCG:  Solving for p_rgh, Initial residual = 0.000271743, Final residual = 1.04538e-05, No Iterations 14
time step continuity errors : sum local = 2.92565e-06, global = 8.86631e-07, cumulative = 9.40146e-05
DICPCG:  Solving for p_rgh, Initial residual = 4.98963e-05, Final residual = 8.18544e-08, No Iterations 49
time step continuity errors : sum local = 2.3162e-08, global = -8.87453e-10, cumulative = 9.40137e-05
smoothSolver:  Solving for epsilon, Initial residual = 0.017741, Final residual = 4.61946e-07, No Iterations 3
smoothSolver:  Solving for k, Initial residual = 0.0116355, Final residual = 1.05474e-07, No Iterations 4
ExecutionTime = 0.76 s  ClockTime = 2 s

Courant Number mean: 0.0684999 max: 1.00574
Interface Courant Number mean: 0.00462946 max: 0.862119
deltaT = 0.00136011
Time = 0.140479

PIMPLE: iteration 1
smoothSolver:  Solving for alpha.water, Initial residual = 0.00244345, Final residual = 2.8186e-11, No Iterations 3
Phase-1 volume fraction = 0.130194  Min(alpha.water) = -2.57851e-08  Max(alpha.water) = 1
MULES: Correcting alpha.water
MULES: Correcting alpha.water
Phase-1 volume fraction = 0.130194  Min(alpha.water) = -1.06144e-07  Max(alpha.water) = 1
DICPCG:  Solving for p_rgh, Initial residual = 0.00937015, Final residual = 0.000196448, No Iterations 2
time step continuity errors : sum local = 4.39037e-05, global = -1.23264e-07, cumulative = 9.38904e-05
DICPCG:  Solving for p_rgh, Initial residual = 0.000239368, Final residual = 8.8929e-06, No Iterations 14
time step continuity errors : sum local = 1.97873e-06, global = 5.82379e-07, cumulative = 9.44728e-05
DICPCG:  Solving for p_rgh, Initial residual = 3.98948e-05, Final residual = 8.88612e-08, No Iterations 48
time step continuity errors : sum local = 1.99647e-08, global = -2.08854e-10, cumulative = 9.44726e-05
smoothSolver:  Solving for epsilon, Initial residual = 0.0159419, Final residual = 2.22127e-07, No Iterations 3
smoothSolver:  Solving for k, Initial residual = 0.0101415, Final residual = 6.71235e-07, No Iterations 3
ExecutionTime = 0.78 s  ClockTime = 2 s

Courant Number mean: 0.0602861 max: 0.892269
Interface Courant Number mean: 0.00376032 max: 0.75602
deltaT = 0.00136011
Time = 0.141839

PIMPLE: iteration 1
smoothSolver:  Solving for alpha.water, Initial residual = 0.00246118, Final residual = 2.96591e-11, No Iterations 3
Phase-1 volume fraction = 0.130194  Min(alpha.water) = -2.39802e-08  Max(alpha.water) = 1
MULES: Correcting alpha.water
MULES: Correcting alpha.water
Phase-1 volume fraction = 0.130194  Min(alpha.water) = -8.5342e-08  Max(alpha.water) = 1
DICPCG:  Solving for p_rgh, Initial residual = 0.00883063, Final residual = 0.00024619, No Iterations 2
time step continuity errors : sum local = 5.54431e-05, global = -8.94182e-08, cumulative = 9.43832e-05
DICPCG:  Solving for p_rgh, Initial residual = 0.000294125, Final residual = 1.13416e-05, No Iterations 14
time step continuity errors : sum local = 2.54474e-06, global = 7.56654e-07, cumulative = 9.51398e-05
DICPCG:  Solving for p_rgh, Initial residual = 4.89104e-05, Final residual = 7.26732e-08, No Iterations 49
time step continuity errors : sum local = 1.64665e-08, global = -9.29229e-10, cumulative = 9.51389e-05
smoothSolver:  Solving for epsilon, Initial residual = 0.0162749, Final residual = 2.25071e-07, No Iterations 3
smoothSolver:  Solving for k, Initial residual = 0.0101437, Final residual = 6.66044e-07, No Iterations 3
ExecutionTime = 0.79 s  ClockTime = 2 s

Courant Number mean: 0.0606207 max: 0.903808
Interface Courant Number mean: 0.00391538 max: 0.754117
deltaT = 0.00136011
Time = 0.143199

PIMPLE: iteration 1
smoothSolver:  Solving for alpha.water, Initial residual = 0.00247261, Final residual = 3.10024e-11, No Iterations 3
Phase-1 volume fraction = 0.130194  Min(alpha.water) = -2.2312e-08  Max(alpha.water) = 1
MULES: Correcting alpha.water
MULES: Correcting alpha.water
Phase-1 volume fraction = 0.130194  Min(alpha.water) = -9.8366e-08  Max(alpha.water) = 1
DICPCG:  Solving for p_rgh, Initial residual = 0.0100586, Final residual = 0.000275778, No Iterations 2
time step continuity errors : sum local = 6.39731e-05, global = -1.2491e-07, cumulative = 9.5014e-05
DICPCG:  Solving for p_rgh, Initial residual = 0.000327683, Final residual = 1.35024e-05, No Iterations 14
time step continuity errors : sum local = 3.1232e-06, global = 8.19696e-07, cumulative = 9.58337e-05
DICPCG:  Solving for p_rgh, Initial residual = 5.58988e-05, Final residual = 9.01387e-08, No Iterations 49
time step continuity errors : sum local = 2.10687e-08, global = -8.83427e-10, cumulative = 9.58328e-05
smoothSolver:  Solving for epsilon, Initial residual = 0.0166251, Final residual = 2.29288e-07, No Iterations 3
smoothSolver:  Solving for k, Initial residual = 0.0101696, Final residual = 6.63322e-07, No Iterations 3
ExecutionTime = 0.8 s  ClockTime = 2 s

Courant Number mean: 0.0609534 max: 0.911716
Interface Courant Number mean: 0.00388493 max: 0.743277
deltaT = 0.00136011
Time = 0.14456

PIMPLE: iteration 1
smoothSolver:  Solving for alpha.water, Initial residual = 0.00248032, Final residual = 3.21985e-11, No Iterations 3
Phase-1 volume fraction = 0.130194  Min(alpha.water) = -2.07732e-08  Max(alpha.water) = 1
MULES: Correcting alpha.water
MULES: Correcting alpha.water
Phase-1 volume fraction = 0.130194  Min(alpha.water) = -1.23667e-07  Max(alpha.water) = 1
DICPCG:  Solving for p_rgh, Initial residual = 0.008625, Final residual = 0.000410773, No Iterations 1
time step continuity errors : sum local = 9.72761e-05, global = -1.41318e-07, cumulative = 9.56915e-05
DICPCG:  Solving for p_rgh, Initial residual = 0.000492628, Final residual = 1.49426e-05, No Iterations 14
time step continuity errors : sum local = 3.52567e-06, global = 5.56061e-07, cumulative = 9.62476e-05
DICPCG:  Solving for p_rgh, Initial residual = 9.61591e-05, Final residual = 9.24502e-08, No Iterations 49
time step continuity errors : sum local = 2.21118e-08, global = -6.67714e-10, cumulative = 9.62469e-05
smoothSolver:  Solving for epsilon, Initial residual = 0.0168785, Final residual = 2.34727e-07, No Iterations 3
smoothSolver:  Solving for k, Initial residual = 0.0101903, Final residual = 6.62473e-07, No Iterations 3
ExecutionTime = 0.82 s  ClockTime = 2 s

Courant Number mean: 0.0612776 max: 0.911668
Interface Courant Number mean: 0.00380309 max: 0.722124
deltaT = 0.00136011
Time = 0.14592

PIMPLE: iteration 1
smoothSolver:  Solving for alpha.water, Initial residual = 0.00250764, Final residual = 3.33576e-11, No Iterations 3
Phase-1 volume fraction = 0.130194  Min(alpha.water) = -1.93551e-08  Max(alpha.water) = 1
MULES: Correcting alpha.water
MULES: Correcting alpha.water
Phase-1 volume fraction = 0.130194  Min(alpha.water) = -1.44526e-07  Max(alpha.water) = 1
DICPCG:  Solving for p_rgh, Initial residual = 0.00822222, Final residual = 0.000320833, No Iterations 1
time step continuity errors : sum local = 7.683e-05, global = -8.76188e-08, cumulative = 9.61593e-05
DICPCG:  Solving for p_rgh, Initial residual = 0.000398557, Final residual = 1.42309e-05, No Iterations 14
time step continuity errors : sum local = 3.39157e-06, global = 3.69206e-07, cumulative = 9.65285e-05
DICPCG:  Solving for p_rgh, Initial residual = 9.20472e-05, Final residual = 8.40014e-08, No Iterations 48
time step continuity errors : sum local = 2.03024e-08, global = -5.84995e-10, cumulative = 9.65279e-05
smoothSolver:  Solving for epsilon, Initial residual = 0.0172401, Final residual = 2.4253e-07, No Iterations 3
smoothSolver:  Solving for k, Initial residual = 0.0102613, Final residual = 6.65618e-07, No Iterations 3
ExecutionTime = 0.83 s  ClockTime = 2 s

Courant Number mean: 0.0615939 max: 0.903387
Interface Courant Number mean: 0.00407008 max: 0.810982
deltaT = 0.00136011
Time = 0.14728

PIMPLE: iteration 1
smoothSolver:  Solving for alpha.water, Initial residual = 0.00253262, Final residual = 3.45173e-11, No Iterations 3
Phase-1 volume fraction = 0.130194  Min(alpha.water) = -1.8623e-08  Max(alpha.water) = 1
MULES: Correcting alpha.water
MULES: Correcting alpha.water
Phase-1 volume fraction = 0.130194  Min(alpha.water) = -1.62351e-07  Max(alpha.water) = 1.00001
DICPCG:  Solving for p_rgh, Initial residual = 0.00851107, Final residual = 0.000374149, No Iterations 1
time step continuity errors : sum local = 8.99267e-05, global = -5.51812e-08, cumulative = 9.64727e-05
DICPCG:  Solving for p_rgh, Initial residual = 0.000469677, Final residual = 1.74007e-05, No Iterations 14
time step continuity errors : sum local = 4.1627e-06, global = 3.98536e-07, cumulative = 9.68713e-05
DICPCG:  Solving for p_rgh, Initial residual = 0.000110456, Final residual = 9.35607e-08, No Iterations 48
time step continuity errors : sum local = 2.27294e-08, global = -9.74833e-10, cumulative = 9.68703e-05
smoothSolver:  Solving for epsilon, Initial residual = 0.0175157, Final residual = 2.53345e-07, No Iterations 3
smoothSolver:  Solving for k, Initial residual = 0.0103195, Final residual = 6.68426e-07, No Iterations 3
ExecutionTime = 0.85 s  ClockTime = 2 s

Courant Number mean: 0.0619123 max: 0.873847
Interface Courant Number mean: 0.00412357 max: 0.773485
deltaT = 0.00136011
Time = 0.14864

PIMPLE: iteration 1
smoothSolver:  Solving for alpha.water, Initial residual = 0.00256463, Final residual = 3.5315e-11, No Iterations 3
Phase-1 volume fraction = 0.130194  Min(alpha.water) = -1.83953e-08  Max(alpha.water) = 1
MULES: Correcting alpha.water
MULES: Correcting alpha.water
Phase-1 volume fraction = 0.130194  Min(alpha.water) = -1.77398e-07  Max(alpha.water) = 1
DICPCG:  Solving for p_rgh, Initial residual = 0.00889375, Final residual = 0.000405746, No Iterations 1
time step continuity errors : sum local = 9.79907e-05, global = -6.29985e-08, cumulative = 9.68073e-05
DICPCG:  Solving for p_rgh, Initial residual = 0.000501329, Final residual = 1.92202e-05, No Iterations 14
time step continuity errors : sum local = 4.6186e-06, global = 4.56198e-07, cumulative = 9.72635e-05
DICPCG:  Solving for p_rgh, Initial residual = 0.000117785, Final residual = 9.8721e-08, No Iterations 48
time step continuity errors : sum local = 2.41007e-08, global = -1.65628e-09, cumulative = 9.72618e-05
smoothSolver:  Solving for epsilon, Initial residual = 0.0178912, Final residual = 2.67186e-07, No Iterations 3
smoothSolver:  Solving for k, Initial residual = 0.0104124, Final residual = 6.71524e-07, No Iterations 3
ExecutionTime = 0.86 s  ClockTime = 2 s

Courant Number mean: 0.0622236 max: 0.838109
Interface Courant Number mean: 0.00400561 max: 0.737243
deltaT = 0.00136011
Time = 0.15

PIMPLE: iteration 1
smoothSolver:  Solving for alpha.water, Initial residual = 0.00258976, Final residual = 3.66501e-11, No Iterations 3
Phase-1 volume fraction = 0.130194  Min(alpha.water) = -1.80894e-08  Max(alpha.water) = 1
MULES: Correcting alpha.water
MULES: Correcting alpha.water
Phase-1 volume fraction = 0.130194  Min(alpha.water) = -1.91493e-07  Max(alpha.water) = 1.00001
DICPCG:  Solving for p_rgh, Initial residual = 0.0092693, Final residual = 0.000463096, No Iterations 1
time step continuity errors : sum local = 0.000112265, global = -7.62239e-08, cumulative = 9.71856e-05
DICPCG:  Solving for p_rgh, Initial residual = 0.000578822, Final residual = 2.33717e-05, No Iterations 14
time step continuity errors : sum local = 5.6361e-06, global = 5.14655e-07, cumulative = 9.77003e-05
DICPCG:  Solving for p_rgh, Initial residual = 0.000121782, Final residual = 9.20215e-08, No Iterations 49
time step continuity errors : sum local = 2.25697e-08, global = -7.50042e-10, cumulative = 9.76995e-05
smoothSolver:  Solving for epsilon, Initial residual = 0.0177555, Final residual = 2.78808e-07, No Iterations 3
smoothSolver:  Solving for k, Initial residual = 0.0104428, Final residual = 6.69773e-07, No Iterations 3
ExecutionTime = 0.9 s  ClockTime = 2 s

Courant Number mean: 0.0625046 max: 0.787677
Interface Courant Number mean: 0.00428673 max: 0.787677
deltaT = 0.00151515
Time = 0.151515

PIMPLE: iteration 1
smoothSolver:  Solving for alpha.water, Initial residual = 0.00294463, Final residual = 7.60114e-11, No Iterations 3
Phase-1 volume fraction = 0.130194  Min(alpha.water) = -1.76701e-08  Max(alpha.water) = 1
MULES: Correcting alpha.water
MULES: Correcting alpha.water
Phase-1 volume fraction = 0.130194  Min(alpha.water) = -3.17552e-07  Max(alpha.water) = 1.00001
DICPCG:  Solving for p_rgh, Initial residual = 0.0105417, Final residual = 0.000302975, No Iterations 2
time step continuity errors : sum local = 8.90308e-05, global = -9.37466e-08, cumulative = 9.76058e-05
DICPCG:  Solving for p_rgh, Initial residual = 0.000421665, Final residual = 1.85585e-05, No Iterations 14
time step continuity errors : sum local = 5.43888e-06, global = 7.29729e-07, cumulative = 9.83355e-05
DICPCG:  Solving for p_rgh, Initial residual = 9.44481e-05, Final residual = 9.56703e-08, No Iterations 49
time step continuity errors : sum local = 2.85086e-08, global = -1.19157e-09, cumulative = 9.83343e-05
smoothSolver:  Solving for epsilon, Initial residual = 0.0196521, Final residual = 5.17376e-07, No Iterations 3
smoothSolver:  Solving for k, Initial residual = 0.0115678, Final residual = 8.88532e-08, No Iterations 4
ExecutionTime = 0.91 s  ClockTime = 2 s

Courant Number mean: 0.0699405 max: 0.865003
Interface Courant Number mean: 0.0049321 max: 0.830858
deltaT = 0.00167189
Time = 0.153187

PIMPLE: iteration 1
smoothSolver:  Solving for alpha.water, Initial residual = 0.00324798, Final residual = 1.47235e-10, No Iterations 3
Phase-1 volume fraction = 0.130194  Min(alpha.water) = -1.71331e-08  Max(alpha.water) = 1
MULES: Correcting alpha.water
MULES: Correcting alpha.water
Phase-1 volume fraction = 0.130194  Min(alpha.water) = -4.56203e-07  Max(alpha.water) = 1.00001
DICPCG:  Solving for p_rgh, Initial residual = 0.0109554, Final residual = 0.000372314, No Iterations 2
time step continuity errors : sum local = 0.000130541, global = -1.47223e-07, cumulative = 9.81871e-05
DICPCG:  Solving for p_rgh, Initial residual = 0.000534902, Final residual = 2.48991e-05, No Iterations 16
time step continuity errors : sum local = 8.71678e-06, global = 5.76009e-07, cumulative = 9.87631e-05
DICPCG:  Solving for p_rgh, Initial residual = 0.00014287, Final residual = 9.4484e-08, No Iterations 49
time step continuity errors : sum local = 3.37639e-08, global = -3.37688e-09, cumulative = 9.87597e-05
smoothSolver:  Solving for epsilon, Initial residual = 0.0212922, Final residual = 8.71804e-07, No Iterations 3
smoothSolver:  Solving for k, Initial residual = 0.0127161, Final residual = 1.65475e-07, No Iterations 4
ExecutionTime = 0.93 s  ClockTime = 2 s

Courant Number mean: 0.0775551 max: 0.965501
Interface Courant Number mean: 0.00532746 max: 0.887779
deltaT = 0.00167189
Time = 0.154859

PIMPLE: iteration 1
smoothSolver:  Solving for alpha.water, Initial residual = 0.00326191, Final residual = 1.51115e-10, No Iterations 3
Phase-1 volume fraction = 0.130194  Min(alpha.water) = -1.65389e-08  Max(alpha.water) = 1
MULES: Correcting alpha.water
MULES: Correcting alpha.water
Phase-1 volume fraction = 0.130194  Min(alpha.water) = -4.18125e-07  Max(alpha.water) = 1.00001
DICPCG:  Solving for p_rgh, Initial residual = 0.0104802, Final residual = 0.000309627, No Iterations 2
time step continuity errors : sum local = 0.000109732, global = -1.38521e-07, cumulative = 9.86212e-05
DICPCG:  Solving for p_rgh, Initial residual = 0.000428056, Final residual = 1.42544e-05, No Iterations 15
time step continuity errors : sum local = 5.03974e-06, global = 2.56868e-07, cumulative = 9.8878e-05
DICPCG:  Solving for p_rgh, Initial residual = 9.59918e-05, Final residual = 7.55945e-08, No Iterations 50
time step continuity errors : sum local = 2.72359e-08, global = 6.6822e-11, cumulative = 9.88781e-05
smoothSolver:  Solving for epsilon, Initial residual = 0.020478, Final residual = 7.9774e-07, No Iterations 3
smoothSolver:  Solving for k, Initial residual = 0.0125083, Final residual = 1.61863e-07, No Iterations 4
ExecutionTime = 0.94 s  ClockTime = 2 s

Courant Number mean: 0.0779079 max: 0.960664
Interface Courant Number mean: 0.00575926 max: 0.938346
[...]
DICPCG:  Solving for p_rgh, Initial residual = 0.000175565, Final residual = 9.65536e-08, No Iterations 45
time step continuity errors : sum local = 1.45589e-07, global = 1.49677e-08, cumulative = 0.00158111
smoothSolver:  Solving for epsilon, Initial residual = 0.0111175, Final residual = 3.89191e-07, No Iterations 6
smoothSolver:  Solving for k, Initial residual = 0.0115289, Final residual = 4.11196e-07, No Iterations 7
ExecutionTime = 5.74 s  ClockTime = 11 s

Courant Number mean: 0.176533 max: 0.85566
Interface Courant Number mean: 0.0447466 max: 0.85566
deltaT = 0.00555556
Time = 0.927778

PIMPLE: iteration 1
smoothSolver:  Solving for alpha.water, Initial residual = 0.00871382, Final residual = 7.37742e-10, No Iterations 4
Phase-1 volume fraction = 0.130122  Min(alpha.water) = -2.89622e-14  Max(alpha.water) = 1
MULES: Correcting alpha.water
MULES: Correcting alpha.water
Phase-1 volume fraction = 0.130122  Min(alpha.water) = -9.23103e-06  Max(alpha.water) = 1
DICPCG:  Solving for p_rgh, Initial residual = 0.0114197, Final residual = 0.000399413, No Iterations 2
time step continuity errors : sum local = 0.00062135, global = -2.08053e-07, cumulative = 0.0015809
DICPCG:  Solving for p_rgh, Initial residual = 0.000516362, Final residual = 1.91661e-05, No Iterations 11
time step continuity errors : sum local = 2.98597e-05, global = 3.28858e-06, cumulative = 0.00158419
DICPCG:  Solving for p_rgh, Initial residual = 0.000160089, Final residual = 8.63818e-08, No Iterations 45
time step continuity errors : sum local = 1.34697e-07, global = 1.26968e-08, cumulative = 0.0015842
smoothSolver:  Solving for epsilon, Initial residual = 0.0109531, Final residual = 4.08671e-07, No Iterations 6
smoothSolver:  Solving for k, Initial residual = 0.0114221, Final residual = 4.34908e-07, No Iterations 7
ExecutionTime = 5.75 s  ClockTime = 11 s

Courant Number mean: 0.175513 max: 0.840715
Interface Courant Number mean: 0.0439929 max: 0.840715
deltaT = 0.00555556
Time = 0.933333

PIMPLE: iteration 1
smoothSolver:  Solving for alpha.water, Initial residual = 0.00862544, Final residual = 6.50092e-10, No Iterations 4
Phase-1 volume fraction = 0.130122  Min(alpha.water) = -1.27495e-14  Max(alpha.water) = 1
MULES: Correcting alpha.water
MULES: Correcting alpha.water
Phase-1 volume fraction = 0.130122  Min(alpha.water) = -3.6395e-05  Max(alpha.water) = 1
DICPCG:  Solving for p_rgh, Initial residual = 0.011661, Final residual = 0.000398633, No Iterations 2
time step continuity errors : sum local = 0.000611513, global = -7.9653e-07, cumulative = 0.0015834
DICPCG:  Solving for p_rgh, Initial residual = 0.000515618, Final residual = 1.90335e-05, No Iterations 11
time step continuity errors : sum local = 2.92091e-05, global = 2.71925e-06, cumulative = 0.00158612
DICPCG:  Solving for p_rgh, Initial residual = 0.000161012, Final residual = 9.42195e-08, No Iterations 45
time step continuity errors : sum local = 1.44817e-07, global = 1.41669e-08, cumulative = 0.00158614
smoothSolver:  Solving for epsilon, Initial residual = 0.0111664, Final residual = 4.30028e-07, No Iterations 6
smoothSolver:  Solving for k, Initial residual = 0.0113438, Final residual = 4.59701e-07, No Iterations 7
ExecutionTime = 5.76 s  ClockTime = 11 s

Courant Number mean: 0.174637 max: 0.83229
Interface Courant Number mean: 0.0431936 max: 0.826063
deltaT = 0.00555556
Time = 0.938889

PIMPLE: iteration 1
smoothSolver:  Solving for alpha.water, Initial residual = 0.00846723, Final residual = 5.66546e-10, No Iterations 4
Phase-1 volume fraction = 0.130122  Min(alpha.water) = -6.56665e-15  Max(alpha.water) = 1
MULES: Correcting alpha.water
MULES: Correcting alpha.water
Phase-1 volume fraction = 0.130122  Min(alpha.water) = -5.46725e-05  Max(alpha.water) = 1
DICPCG:  Solving for p_rgh, Initial residual = 0.0114815, Final residual = 0.000372014, No Iterations 2
time step continuity errors : sum local = 0.000572176, global = -5.78958e-07, cumulative = 0.00158556
DICPCG:  Solving for p_rgh, Initial residual = 0.000484237, Final residual = 1.91601e-05, No Iterations 11
time step continuity errors : sum local = 2.95138e-05, global = 2.77571e-06, cumulative = 0.00158833
DICPCG:  Solving for p_rgh, Initial residual = 0.000154462, Final residual = 9.95203e-08, No Iterations 45
time step continuity errors : sum local = 1.53563e-07, global = 1.59315e-08, cumulative = 0.00158835
smoothSolver:  Solving for epsilon, Initial residual = 0.0115593, Final residual = 4.51362e-07, No Iterations 6
smoothSolver:  Solving for k, Initial residual = 0.0113561, Final residual = 4.82158e-07, No Iterations 7
ExecutionTime = 5.78 s  ClockTime = 11 s

Courant Number mean: 0.173827 max: 0.825959
Interface Courant Number mean: 0.0426859 max: 0.816422
deltaT = 0.00555556
Time = 0.944444

PIMPLE: iteration 1
smoothSolver:  Solving for alpha.water, Initial residual = 0.00826443, Final residual = 4.7746e-10, No Iterations 4
Phase-1 volume fraction = 0.130122  Min(alpha.water) = -4.12096e-08  Max(alpha.water) = 1
MULES: Correcting alpha.water
MULES: Correcting alpha.water
Phase-1 volume fraction = 0.130122  Min(alpha.water) = -6.35345e-05  Max(alpha.water) = 1
DICPCG:  Solving for p_rgh, Initial residual = 0.0108381, Final residual = 0.000354458, No Iterations 2
time step continuity errors : sum local = 0.0005469, global = -7.91825e-07, cumulative = 0.00158756
DICPCG:  Solving for p_rgh, Initial residual = 0.000457846, Final residual = 1.75429e-05, No Iterations 11
time step continuity errors : sum local = 2.70928e-05, global = 2.19924e-06, cumulative = 0.00158976
DICPCG:  Solving for p_rgh, Initial residual = 0.000144532, Final residual = 9.97618e-08, No Iterations 45
time step continuity errors : sum local = 1.54322e-07, global = 1.57878e-08, cumulative = 0.00158977
smoothSolver:  Solving for epsilon, Initial residual = 0.0119726, Final residual = 4.72956e-07, No Iterations 6
smoothSolver:  Solving for k, Initial residual = 0.0113044, Final residual = 5.02926e-07, No Iterations 7
ExecutionTime = 5.79 s  ClockTime = 11 s

Courant Number mean: 0.173143 max: 0.819586
Interface Courant Number mean: 0.0425141 max: 0.806381
deltaT = 0.00555556
Time = 0.95

PIMPLE: iteration 1
smoothSolver:  Solving for alpha.water, Initial residual = 0.0081403, Final residual = 4.17592e-10, No Iterations 4
Phase-1 volume fraction = 0.130122  Min(alpha.water) = -2.48735e-08  Max(alpha.water) = 1
MULES: Correcting alpha.water
MULES: Correcting alpha.water
Phase-1 volume fraction = 0.130122  Min(alpha.water) = -6.40788e-05  Max(alpha.water) = 1
DICPCG:  Solving for p_rgh, Initial residual = 0.0105816, Final residual = 0.00035045, No Iterations 2
time step continuity errors : sum local = 0.000540387, global = -4.95913e-07, cumulative = 0.00158928
DICPCG:  Solving for p_rgh, Initial residual = 0.000458122, Final residual = 1.7725e-05, No Iterations 11
time step continuity errors : sum local = 2.73339e-05, global = 2.3733e-06, cumulative = 0.00159165
DICPCG:  Solving for p_rgh, Initial residual = 0.000139139, Final residual = 9.23067e-08, No Iterations 45
time step continuity errors : sum local = 1.42741e-07, global = 1.43634e-08, cumulative = 0.00159166
smoothSolver:  Solving for epsilon, Initial residual = 0.0123347, Final residual = 4.96894e-07, No Iterations 6
smoothSolver:  Solving for k, Initial residual = 0.0112429, Final residual = 5.25792e-07, No Iterations 7
ExecutionTime = 5.83 s  ClockTime = 11 s

Courant Number mean: 0.172614 max: 0.812383
Interface Courant Number mean: 0.0427625 max: 0.79609
deltaT = 0.00555556
Time = 0.955556

PIMPLE: iteration 1
smoothSolver:  Solving for alpha.water, Initial residual = 0.00796855, Final residual = 3.6523e-10, No Iterations 4
Phase-1 volume fraction = 0.130122  Min(alpha.water) = -1.48386e-08  Max(alpha.water) = 1
MULES: Correcting alpha.water
MULES: Correcting alpha.water
Phase-1 volume fraction = 0.130122  Min(alpha.water) = -6.19166e-05  Max(alpha.water) = 1
DICPCG:  Solving for p_rgh, Initial residual = 0.00986076, Final residual = 0.000354402, No Iterations 2
time step continuity errors : sum local = 0.000545752, global = -6.1655e-07, cumulative = 0.00159105
DICPCG:  Solving for p_rgh, Initial residual = 0.000457787, Final residual = 1.83536e-05, No Iterations 11
time step continuity errors : sum local = 2.82721e-05, global = 2.42773e-06, cumulative = 0.00159348
DICPCG:  Solving for p_rgh, Initial residual = 0.000137486, Final residual = 8.91002e-08, No Iterations 44
time step continuity errors : sum local = 1.37614e-07, global = 9.58362e-09, cumulative = 0.00159349
smoothSolver:  Solving for epsilon, Initial residual = 0.0127101, Final residual = 5.24557e-07, No Iterations 6
smoothSolver:  Solving for k, Initial residual = 0.0112268, Final residual = 5.53339e-07, No Iterations 7
ExecutionTime = 5.84 s  ClockTime = 11 s

Courant Number mean: 0.172094 max: 0.804159
Interface Courant Number mean: 0.0426569 max: 0.786339
deltaT = 0.00555556
Time = 0.961111

PIMPLE: iteration 1
smoothSolver:  Solving for alpha.water, Initial residual = 0.00777732, Final residual = 3.2532e-10, No Iterations 4
Phase-1 volume fraction = 0.130122  Min(alpha.water) = -9.04961e-09  Max(alpha.water) = 1
MULES: Correcting alpha.water
MULES: Correcting alpha.water
Phase-1 volume fraction = 0.130122  Min(alpha.water) = -5.74775e-05  Max(alpha.water) = 1
DICPCG:  Solving for p_rgh, Initial residual = 0.0100118, Final residual = 0.00035071, No Iterations 2
time step continuity errors : sum local = 0.000540083, global = -7.25314e-07, cumulative = 0.00159276
DICPCG:  Solving for p_rgh, Initial residual = 0.000451341, Final residual = 1.73514e-05, No Iterations 11
time step continuity errors : sum local = 2.66892e-05, global = 2.00712e-06, cumulative = 0.00159477
DICPCG:  Solving for p_rgh, Initial residual = 0.000133327, Final residual = 8.05818e-08, No Iterations 44
time step continuity errors : sum local = 1.24203e-07, global = 3.01175e-09, cumulative = 0.00159477
smoothSolver:  Solving for epsilon, Initial residual = 0.0129627, Final residual = 5.53168e-07, No Iterations 6
smoothSolver:  Solving for k, Initial residual = 0.0111697, Final residual = 5.81669e-07, No Iterations 7
ExecutionTime = 5.86 s  ClockTime = 11 s

Courant Number mean: 0.171487 max: 0.796163
Interface Courant Number mean: 0.042035 max: 0.779358
deltaT = 0.00555556
Time = 0.966667

PIMPLE: iteration 1
smoothSolver:  Solving for alpha.water, Initial residual = 0.00761195, Final residual = 3.14526e-10, No Iterations 4
Phase-1 volume fraction = 0.130122  Min(alpha.water) = -6.67908e-09  Max(alpha.water) = 1
MULES: Correcting alpha.water
MULES: Correcting alpha.water
Phase-1 volume fraction = 0.130122  Min(alpha.water) = -5.20154e-05  Max(alpha.water) = 1
DICPCG:  Solving for p_rgh, Initial residual = 0.0112793, Final residual = 0.000372383, No Iterations 2
time step continuity errors : sum local = 0.000573742, global = -6.0852e-07, cumulative = 0.00159416
DICPCG:  Solving for p_rgh, Initial residual = 0.000478263, Final residual = 1.89776e-05, No Iterations 11
time step continuity errors : sum local = 2.92208e-05, global = 2.3963e-06, cumulative = 0.00159656
DICPCG:  Solving for p_rgh, Initial residual = 0.000140286, Final residual = 9.83423e-08, No Iterations 42
time step continuity errors : sum local = 1.51958e-07, global = 7.67737e-09, cumulative = 0.00159657
smoothSolver:  Solving for epsilon, Initial residual = 0.0131862, Final residual = 5.81262e-07, No Iterations 6
smoothSolver:  Solving for k, Initial residual = 0.0111142, Final residual = 6.08947e-07, No Iterations 7
ExecutionTime = 5.87 s  ClockTime = 11 s

Courant Number mean: 0.170774 max: 0.789374
Interface Courant Number mean: 0.0421241 max: 0.772513
deltaT = 0.00555556
Time = 0.972222

PIMPLE: iteration 1
smoothSolver:  Solving for alpha.water, Initial residual = 0.00752402, Final residual = 3.06624e-10, No Iterations 4
Phase-1 volume fraction = 0.130122  Min(alpha.water) = -4.72565e-09  Max(alpha.water) = 1
MULES: Correcting alpha.water
MULES: Correcting alpha.water
Phase-1 volume fraction = 0.130122  Min(alpha.water) = -4.61833e-05  Max(alpha.water) = 1
DICPCG:  Solving for p_rgh, Initial residual = 0.0115751, Final residual = 0.000369114, No Iterations 2
time step continuity errors : sum local = 0.000571048, global = -8.47174e-07, cumulative = 0.00159572
DICPCG:  Solving for p_rgh, Initial residual = 0.000472323, Final residual = 1.90405e-05, No Iterations 11
time step continuity errors : sum local = 2.94613e-05, global = 2.23687e-06, cumulative = 0.00159796
DICPCG:  Solving for p_rgh, Initial residual = 0.000138958, Final residual = 9.92468e-08, No Iterations 34
time step continuity errors : sum local = 1.54028e-07, global = -7.24756e-08, cumulative = 0.00159788
smoothSolver:  Solving for epsilon, Initial residual = 0.0133536, Final residual = 6.09844e-07, No Iterations 6
smoothSolver:  Solving for k, Initial residual = 0.0111327, Final residual = 6.36505e-07, No Iterations 7
ExecutionTime = 5.89 s  ClockTime = 11 s

Courant Number mean: 0.169984 max: 0.783664
Interface Courant Number mean: 0.0414173 max: 0.766258
deltaT = 0.00555556
Time = 0.977778

PIMPLE: iteration 1
smoothSolver:  Solving for alpha.water, Initial residual = 0.00734755, Final residual = 3.05977e-10, No Iterations 4
Phase-1 volume fraction = 0.130122  Min(alpha.water) = -3.20279e-09  Max(alpha.water) = 1
MULES: Correcting alpha.water
MULES: Correcting alpha.water
Phase-1 volume fraction = 0.130122  Min(alpha.water) = -4.02052e-05  Max(alpha.water) = 1
DICPCG:  Solving for p_rgh, Initial residual = 0.0105788, Final residual = 0.000337055, No Iterations 2
time step continuity errors : sum local = 0.000523994, global = -1.00139e-06, cumulative = 0.00159688
DICPCG:  Solving for p_rgh, Initial residual = 0.000434792, Final residual = 1.81375e-05, No Iterations 11
time step continuity errors : sum local = 2.82227e-05, global = 1.55216e-06, cumulative = 0.00159843
DICPCG:  Solving for p_rgh, Initial residual = 0.000127766, Final residual = 8.81783e-08, No Iterations 42
time step continuity errors : sum local = 1.37694e-07, global = 9.04389e-09, cumulative = 0.00159844
smoothSolver:  Solving for epsilon, Initial residual = 0.0134511, Final residual = 6.20463e-07, No Iterations 6
smoothSolver:  Solving for k, Initial residual = 0.0111079, Final residual = 6.39504e-07, No Iterations 7
ExecutionTime = 5.9 s  ClockTime = 11 s

Courant Number mean: 0.169187 max: 0.777578
Interface Courant Number mean: 0.0424105 max: 0.760773
deltaT = 0.00555556
Time = 0.983333

PIMPLE: iteration 1
smoothSolver:  Solving for alpha.water, Initial residual = 0.00718925, Final residual = 3.17999e-10, No Iterations 4
Phase-1 volume fraction = 0.130122  Min(alpha.water) = -2.44892e-09  Max(alpha.water) = 1
MULES: Correcting alpha.water
MULES: Correcting alpha.water
Phase-1 volume fraction = 0.130122  Min(alpha.water) = -0.000110981  Max(alpha.water) = 1
DICPCG:  Solving for p_rgh, Initial residual = 0.0101096, Final residual = 0.000322488, No Iterations 2
time step continuity errors : sum local = 0.000503916, global = -4.70417e-07, cumulative = 0.00159797
DICPCG:  Solving for p_rgh, Initial residual = 0.000413183, Final residual = 1.60516e-05, No Iterations 11
time step continuity errors : sum local = 2.51091e-05, global = 1.89647e-06, cumulative = 0.00159987
DICPCG:  Solving for p_rgh, Initial residual = 0.000115942, Final residual = 8.3975e-08, No Iterations 42
time step continuity errors : sum local = 1.31842e-07, global = 2.4404e-09, cumulative = 0.00159987
smoothSolver:  Solving for epsilon, Initial residual = 0.0135068, Final residual = 6.27401e-07, No Iterations 6
smoothSolver:  Solving for k, Initial residual = 0.0110706, Final residual = 6.38519e-07, No Iterations 7
ExecutionTime = 5.92 s  ClockTime = 11 s

Courant Number mean: 0.168299 max: 0.769685
Interface Courant Number mean: 0.0418968 max: 0.756101
deltaT = 0.00555556
Time = 0.988889

PIMPLE: iteration 1
smoothSolver:  Solving for alpha.water, Initial residual = 0.00715205, Final residual = 3.36446e-10, No Iterations 4
Phase-1 volume fraction = 0.130122  Min(alpha.water) = -1.14872e-09  Max(alpha.water) = 1
MULES: Correcting alpha.water
MULES: Correcting alpha.water
Phase-1 volume fraction = 0.130122  Min(alpha.water) = -8.56166e-05  Max(alpha.water) = 1
DICPCG:  Solving for p_rgh, Initial residual = 0.0101361, Final residual = 0.000318713, No Iterations 2
time step continuity errors : sum local = 0.000500373, global = -6.78924e-07, cumulative = 0.00159919
DICPCG:  Solving for p_rgh, Initial residual = 0.000406092, Final residual = 1.63584e-05, No Iterations 11
time step continuity errors : sum local = 2.57133e-05, global = 1.6782e-06, cumulative = 0.00160087
DICPCG:  Solving for p_rgh, Initial residual = 0.000116357, Final residual = 8.32577e-08, No Iterations 42
time step continuity errors : sum local = 1.3136e-07, global = -8.58683e-10, cumulative = 0.00160087
smoothSolver:  Solving for epsilon, Initial residual = 0.0135982, Final residual = 6.36426e-07, No Iterations 6
smoothSolver:  Solving for k, Initial residual = 0.0110889, Final residual = 6.41072e-07, No Iterations 7
ExecutionTime = 5.93 s  ClockTime = 11 s

Courant Number mean: 0.167278 max: 0.761799
Interface Courant Number mean: 0.0413948 max: 0.75232
deltaT = 0.00555556
Time = 0.994444

PIMPLE: iteration 1
smoothSolver:  Solving for alpha.water, Initial residual = 0.00705004, Final residual = 3.37222e-10, No Iterations 4
Phase-1 volume fraction = 0.130122  Min(alpha.water) = -4.94702e-10  Max(alpha.water) = 1
MULES: Correcting alpha.water
MULES: Correcting alpha.water
Phase-1 volume fraction = 0.130122  Min(alpha.water) = -5.97353e-05  Max(alpha.water) = 1
DICPCG:  Solving for p_rgh, Initial residual = 0.00988919, Final residual = 0.000301907, No Iterations 2
time step continuity errors : sum local = 0.000475672, global = -6.3238e-07, cumulative = 0.00160024
DICPCG:  Solving for p_rgh, Initial residual = 0.000387227, Final residual = 1.54525e-05, No Iterations 11
time step continuity errors : sum local = 2.43496e-05, global = 1.5413e-06, cumulative = 0.00160178
DICPCG:  Solving for p_rgh, Initial residual = 0.000112805, Final residual = 8.28021e-08, No Iterations 42
time step continuity errors : sum local = 1.30979e-07, global = -8.99496e-09, cumulative = 0.00160177
smoothSolver:  Solving for epsilon, Initial residual = 0.0136927, Final residual = 6.44888e-07, No Iterations 6
smoothSolver:  Solving for k, Initial residual = 0.0111108, Final residual = 6.43161e-07, No Iterations 7
ExecutionTime = 5.95 s  ClockTime = 11 s

Courant Number mean: 0.166114 max: 0.754464
Interface Courant Number mean: 0.0416009 max: 0.749802
deltaT = 0.00555556
Time = 1

PIMPLE: iteration 1
smoothSolver:  Solving for alpha.water, Initial residual = 0.00692763, Final residual = 3.31751e-10, No Iterations 4
Phase-1 volume fraction = 0.130122  Min(alpha.water) = -7.28145e-11  Max(alpha.water) = 1
MULES: Correcting alpha.water
MULES: Correcting alpha.water
Phase-1 volume fraction = 0.130122  Min(alpha.water) = -0.000101178  Max(alpha.water) = 1
DICPCG:  Solving for p_rgh, Initial residual = 0.0101915, Final residual = 0.000311979, No Iterations 2
time step continuity errors : sum local = 0.000492454, global = -6.22822e-07, cumulative = 0.00160115
DICPCG:  Solving for p_rgh, Initial residual = 0.000401816, Final residual = 1.59389e-05, No Iterations 11
time step continuity errors : sum local = 2.51575e-05, global = 1.63642e-06, cumulative = 0.00160278
DICPCG:  Solving for p_rgh, Initial residual = 0.00011511, Final residual = 8.20862e-08, No Iterations 42
time step continuity errors : sum local = 1.30021e-07, global = -1.41662e-08, cumulative = 0.00160277
smoothSolver:  Solving for epsilon, Initial residual = 0.0137343, Final residual = 6.53574e-07, No Iterations 6
smoothSolver:  Solving for k, Initial residual = 0.0111158, Final residual = 6.45664e-07, No Iterations 7
ExecutionTime = 5.98 s  ClockTime = 12 s

End

