/*---------------------------------------------------------------------------*\
| =========                 |                                                 |
| \\      /  F ield         | OpenFOAM: The Open Source CFD Toolbox           |
|  \\    /   O peration     | Version:  v1606+                                |
|   \\  /    A nd           | Web:      www.OpenFOAM.com                      |
|    \\/     M anipulation  |                                                 |
\*---------------------------------------------------------------------------*/
Build  : v1606+
Exec   : interDyMFoam -parallel
Date   : Oct 20 2016
Time   : 06:58:12
Host   : "79ba4d3dd43f"
PID    : 1097
Case   : /openfoam/interDyMFoam/ras/mixerVesselAMI
nProcs : 6
Slaves : 
5
(
"79ba4d3dd43f.1098"
"79ba4d3dd43f.1099"
"79ba4d3dd43f.1100"
"79ba4d3dd43f.1101"
"79ba4d3dd43f.1102"
)

Pstream initialized with:
    floatTransfer      : 0
    nProcsSimpleSum    : 0
    commsType          : nonBlocking
    polling iterations : 0
sigFpe : Enabling floating point exception trapping (FOAM_SIGFPE).
fileModificationChecking : Monitoring run-time modified files using timeStampMaster
allowSystemOperations : Allowing user-supplied system call operations

// * * * * * * * * * * * * * * * * * * * * * * * * * * * * * * * * * * * * * //
Create time

Create mesh for time = 0

Selecting dynamicFvMesh solidBodyMotionFvMesh
Selecting solid-body motion function rotatingMotion
Applying solid body motion to cellZone rotating

PIMPLE: no residual control data found. Calculations will employ 2 corrector loops

Reading field p_rgh

Reading field U

Reading/calculating face flux field phi

AMI: Creating addressing and weights between 41828 source faces and 41828 target faces
AMI: Patch source sum(weights) min/max/average = 1, 1.58143, 1.00079
AMI: Patch target sum(weights) min/max/average = 1, 1.29332, 1.00078
Reading transportProperties

Selecting incompressible transport model Newtonian
Selecting incompressible transport model Newtonian
Selecting turbulence model type RAS
Selecting RAS turbulence model kEpsilon

Reading g

Reading hRef
Calculating field g.h

No MRF models present

No finite volume options present

GAMG:  Solving for pcorr, Initial residual = 1, Final residual = 0.0400134, No Iterations 10
time step continuity errors : sum local = 2.54193e-07, global = -1.1075e-08, cumulative = -1.1075e-08
Reading/calculating face velocity Uf

Courant Number mean: 0.00155744 max: 0.865881

Starting time loop

Courant Number mean: 0.00155123 max: 0.862431
Interface Courant Number mean: 0 max: 0
deltaT = 0.000116822
Time = 0.0001168224299

PIMPLE: iteration 1
AMI: Creating addressing and weights between 41828 source faces and 41828 target faces
AMI: Patch source sum(weights) min/max/average = 0.998242, 1.52096, 1.00096
AMI: Patch target sum(weights) min/max/average = 0.99685, 1.2553, 1.00093
Execution time for mesh.update() = 1.56 s
GAMG:  Solving for pcorr, Initial residual = 1, Final residual = 0.0743716, No Iterations 6
time step continuity errors : sum local = 2.6995e-06, global = -1.47336e-07, cumulative = -1.58411e-07
MULES: Solving for alpha.water
Phase-1 volume fraction = 0.290112  Min(alpha.water) = 0  Max(alpha.water) = 1.16614
MULES: Solving for alpha.water
Phase-1 volume fraction = 0.290112  Min(alpha.water) = 0  Max(alpha.water) = 1.14255
smoothSolver:  Solving for Ux, Initial residual = 1, Final residual = 2.97242e-07, No Iterations 3
smoothSolver:  Solving for Uy, Initial residual = 1, Final residual = 8.69298e-08, No Iterations 3
smoothSolver:  Solving for Uz, Initial residual = 1, Final residual = 9.31893e-08, No Iterations 3
GAMG:  Solving for p_rgh, Initial residual = 1, Final residual = 0.0191248, No Iterations 12
time step continuity errors : sum local = 1.35391e-06, global = -1.09735e-07, cumulative = -2.68147e-07
PIMPLE: iteration 2
MULES: Solving for alpha.water
Phase-1 volume fraction = 0.290108  Min(alpha.water) = -9.8448e-06  Max(alpha.water) = 1.00546
MULES: Solving for alpha.water
Phase-1 volume fraction = 0.290108  Min(alpha.water) = -9.82705e-06  Max(alpha.water) = 1.01153
smoothSolver:  Solving for Ux, Initial residual = 0.029053, Final residual = 7.44889e-07, No Iterations 2
smoothSolver:  Solving for Uy, Initial residual = 0.0280628, Final residual = 7.57535e-07, No Iterations 2
smoothSolver:  Solving for Uz, Initial residual = 0.0467882, Final residual = 6.91554e-07, No Iterations 2
GAMG:  Solving for p_rgh, Initial residual = 0.0260472, Final residual = 9.55737e-07, No Iterations 23
time step continuity errors : sum local = 1.31989e-09, global = 4.12434e-11, cumulative = -2.68106e-07
smoothSolver:  Solving for epsilon, Initial residual = 0.00236269, Final residual = 3.2626e-08, No Iterations 2
smoothSolver:  Solving for k, Initial residual = 1, Final residual = 1.16328e-07, No Iterations 4
ExecutionTime = 10.57 s  ClockTime = 37 s

Courant Number mean: 0.00795346 max: 1.29812
Interface Courant Number mean: 1.04348e-06 max: 0.313957
deltaT = 0.000130278
Time = 0.0002471008465

PIMPLE: iteration 1
AMI: Creating addressing and weights between 41828 source faces and 41828 target faces
AMI: Patch source sum(weights) min/max/average = 0.996398, 1.46984, 1.00114
AMI: Patch target sum(weights) min/max/average = 0.993825, 1.25044, 1.00111
Execution time for mesh.update() = 2.07 s
GAMG:  Solving for pcorr, Initial residual = 1, Final residual = 0.0387351, No Iterations 2
time step continuity errors : sum local = 8.79854e-09, global = 1.44115e-09, cumulative = -2.66665e-07
MULES: Solving for alpha.water
Phase-1 volume fraction = 0.290108  Min(alpha.water) = -9.81123e-06  Max(alpha.water) = 1.01055
MULES: Solving for alpha.water
Phase-1 volume fraction = 0.290108  Min(alpha.water) = -9.79543e-06  Max(alpha.water) = 1.01021
smoothSolver:  Solving for Ux, Initial residual = 0.336223, Final residual = 4.24548e-07, No Iterations 4
smoothSolver:  Solving for Uy, Initial residual = 0.33144, Final residual = 4.29879e-07, No Iterations 4
smoothSolver:  Solving for Uz, Initial residual = 0.677144, Final residual = 2.07293e-07, No Iterations 4
GAMG:  Solving for p_rgh, Initial residual = 0.0357908, Final residual = 0.000490489, No Iterations 13
time step continuity errors : sum local = 7.56065e-07, global = -2.20677e-08, cumulative = -2.88732e-07
PIMPLE: iteration 2
MULES: Solving for alpha.water
Phase-1 volume fraction = 0.290108  Min(alpha.water) = -9.81315e-06  Max(alpha.water) = 1.01479
MULES: Solving for alpha.water
Phase-1 volume fraction = 0.290108  Min(alpha.water) = -9.79922e-06  Max(alpha.water) = 1.01758
smoothSolver:  Solving for Ux, Initial residual = 0.033827, Final residual = 6.49862e-07, No Iterations 4
smoothSolver:  Solving for Uy, Initial residual = 0.032657, Final residual = 6.55902e-07, No Iterations 4
smoothSolver:  Solving for Uz, Initial residual = 0.0538034, Final residual = 3.56335e-07, No Iterations 4
GAMG:  Solving for p_rgh, Initial residual = 0.151753, Final residual = 9.12115e-07, No Iterations 24
time step continuity errors : sum local = 2.63968e-10, global = -1.6568e-11, cumulative = -2.88749e-07
smoothSolver:  Solving for epsilon, Initial residual = 0.00349036, Final residual = 2.88723e-07, No Iterations 4
smoothSolver:  Solving for k, Initial residual = 0.344899, Final residual = 5.01022e-07, No Iterations 8
ExecutionTime = 20.43 s  ClockTime = 71 s

Courant Number mean: 0.00886736 max: 1.05021
Interface Courant Number mean: 1.72016e-05 max: 0.306445
deltaT = 0.000148221
Time = 0.0003953217995

PIMPLE: iteration 1
AMI: Creating addressing and weights between 41828 source faces and 41828 target faces
AMI: Patch source sum(weights) min/max/average = 0.994453, 1.42769, 1.00134
AMI: Patch target sum(weights) min/max/average = 0.991132, 1.24525, 1.0013
Execution time for mesh.update() = 1.55 s
GAMG:  Solving for pcorr, Initial residual = 1, Final residual = 0.0868537, No Iterations 2
time step continuity errors : sum local = 8.10979e-09, global = 2.46745e-11, cumulative = -2.88724e-07
MULES: Solving for alpha.water
Phase-1 volume fraction = 0.290108  Min(alpha.water) = -9.77725e-06  Max(alpha.water) = 1.01532
MULES: Solving for alpha.water
Phase-1 volume fraction = 0.290108  Min(alpha.water) = -9.75533e-06  Max(alpha.water) = 1.01451
smoothSolver:  Solving for Ux, Initial residual = 0.0116349, Final residual = 6.18047e-07, No Iterations 8
smoothSolver:  Solving for Uy, Initial residual = 0.011544, Final residual = 6.00621e-07, No Iterations 8
smoothSolver:  Solving for Uz, Initial residual = 0.00894858, Final residual = 9.40024e-07, No Iterations 9
GAMG:  Solving for p_rgh, Initial residual = 0.0952039, Final residual = 0.000747994, No Iterations 4
time step continuity errors : sum local = 1.36949e-07, global = 2.34762e-08, cumulative = -2.65248e-07
PIMPLE: iteration 2
MULES: Solving for alpha.water
Phase-1 volume fraction = 0.290108  Min(alpha.water) = -9.77882e-06  Max(alpha.water) = 1.01534
MULES: Solving for alpha.water
Phase-1 volume fraction = 0.290108  Min(alpha.water) = -9.75837e-06  Max(alpha.water) = 1.0134
smoothSolver:  Solving for Ux, Initial residual = 0.00106213, Final residual = 7.62908e-07, No Iterations 10
smoothSolver:  Solving for Uy, Initial residual = 0.0010813, Final residual = 7.84537e-07, No Iterations 10
smoothSolver:  Solving for Uz, Initial residual = 0.000871094, Final residual = 8.84702e-07, No Iterations 9
GAMG:  Solving for p_rgh, Initial residual = 0.0277775, Final residual = 7.34659e-07, No Iterations 16
time step continuity errors : sum local = 1.07952e-10, global = -7.39277e-12, cumulative = -2.65255e-07
smoothSolver:  Solving for epsilon, Initial residual = 0.0456703, Final residual = 7.45633e-07, No Iterations 10
smoothSolver:  Solving for k, Initial residual = 0.219464, Final residual = 9.63163e-07, No Iterations 22
ExecutionTime = 28.98 s  ClockTime = 99 s

Courant Number mean: 0.0100863 max: 0.99358
Interface Courant Number mean: 2.14868e-05 max: 0.0743911
deltaT = 0.000169687
Time = 0.0005650092354

PIMPLE: iteration 1
AMI: Creating addressing and weights between 41828 source faces and 41828 target faces
AMI: Patch source sum(weights) min/max/average = 0.992425, 1.39319, 1.00157
AMI: Patch target sum(weights) min/max/average = 0.989021, 1.23943, 1.00152
Execution time for mesh.update() = 1.95 s
GAMG:  Solving for pcorr, Initial residual = 1, Final residual = 0.0843269, No Iterations 3
time step continuity errors : sum local = 5.34728e-09, global = -1.02506e-10, cumulative = -2.65358e-07
MULES: Solving for alpha.water
Phase-1 volume fraction = 0.290108  Min(alpha.water) = -9.73498e-06  Max(alpha.water) = 1.01247
MULES: Solving for alpha.water
Phase-1 volume fraction = 0.290108  Min(alpha.water) = -9.71165e-06  Max(alpha.water) = 1.01154
smoothSolver:  Solving for Ux, Initial residual = 0.00696106, Final residual = 9.75464e-07, No Iterations 6
smoothSolver:  Solving for Uy, Initial residual = 0.00684336, Final residual = 8.94391e-07, No Iterations 6
smoothSolver:  Solving for Uz, Initial residual = 0.0048621, Final residual = 8.04895e-07, No Iterations 5
GAMG:  Solving for p_rgh, Initial residual = 0.0478452, Final residual = 0.000636527, No Iterations 4
time step continuity errors : sum local = 1.20305e-07, global = 3.12817e-08, cumulative = -2.34076e-07
PIMPLE: iteration 2
MULES: Solving for alpha.water
Phase-1 volume fraction = 0.290108  Min(alpha.water) = -9.73678e-06  Max(alpha.water) = 1.01216
MULES: Solving for alpha.water
Phase-1 volume fraction = 0.290108  Min(alpha.water) = -9.71513e-06  Max(alpha.water) = 1.01095
smoothSolver:  Solving for Ux, Initial residual = 0.000605357, Final residual = 7.7345e-07, No Iterations 7
smoothSolver:  Solving for Uy, Initial residual = 0.000613121, Final residual = 8.75312e-07, No Iterations 7
smoothSolver:  Solving for Uz, Initial residual = 0.000450917, Final residual = 7.68247e-07, No Iterations 6
GAMG:  Solving for p_rgh, Initial residual = 0.0150295, Final residual = 8.00299e-07, No Iterations 16
time step continuity errors : sum local = 1.3985e-10, global = 1.16424e-11, cumulative = -2.34065e-07
smoothSolver:  Solving for epsilon, Initial residual = 0.0201757, Final residual = 6.09692e-07, No Iterations 5
smoothSolver:  Solving for k, Initial residual = 0.0611384, Final residual = 9.47607e-07, No Iterations 17
ExecutionTime = 37.45 s  ClockTime = 128 s

Courant Number mean: 0.0115456 max: 1.13475
Interface Courant Number mean: 2.68712e-05 max: 0.0845833
deltaT = 0.000190898
Time = 0.0007559076007

PIMPLE: iteration 1
AMI: Creating addressing and weights between 41828 source faces and 41828 target faces
AMI: Patch source sum(weights) min/max/average = 0.990284, 1.36739, 1.00181
AMI: Patch target sum(weights) min/max/average = 0.98727, 1.23302, 1.00175
Execution time for mesh.update() = 1.5 s
GAMG:  Solving for pcorr, Initial residual = 1, Final residual = 0.0540513, No Iterations 4
time step continuity errors : sum local = 3.1614e-09, global = -7.471e-11, cumulative = -2.34139e-07
MULES: Solving for alpha.water
Phase-1 volume fraction = 0.290108  Min(alpha.water) = -9.6908e-06  Max(alpha.water) = 1.00997
MULES: Solving for alpha.water
Phase-1 volume fraction = 0.290108  Min(alpha.water) = -9.66654e-06  Max(alpha.water) = 1.00917
smoothSolver:  Solving for Ux, Initial residual = 0.00506497, Final residual = 7.66668e-07, No Iterations 4
smoothSolver:  Solving for Uy, Initial residual = 0.00495243, Final residual = 7.60935e-07, No Iterations 4
smoothSolver:  Solving for Uz, Initial residual = 0.00353822, Final residual = 3.49022e-07, No Iterations 3
GAMG:  Solving for p_rgh, Initial residual = 0.0344051, Final residual = 0.000245018, No Iterations 4
time step continuity errors : sum local = 5.32619e-08, global = 2.12639e-08, cumulative = -2.12875e-07
PIMPLE: iteration 2
MULES: Solving for alpha.water
Phase-1 volume fraction = 0.290108  Min(alpha.water) = -9.69279e-06  Max(alpha.water) = 1.01006
MULES: Solving for alpha.water
Phase-1 volume fraction = 0.290108  Min(alpha.water) = -9.67038e-06  Max(alpha.water) = 1.00913
smoothSolver:  Solving for Ux, Initial residual = 0.000307233, Final residual = 5.6378e-07, No Iterations 4
smoothSolver:  Solving for Uy, Initial residual = 0.000305301, Final residual = 5.44986e-07, No Iterations 4
smoothSolver:  Solving for Uz, Initial residual = 0.000228032, Final residual = 8.71512e-07, No Iterations 2
GAMG:  Solving for p_rgh, Initial residual = 0.00916339, Final residual = 7.62088e-07, No Iterations 17
time step continuity errors : sum local = 1.60255e-10, global = 1.21985e-11, cumulative = -2.12863e-07
smoothSolver:  Solving for epsilon, Initial residual = 0.008756, Final residual = 3.81086e-07, No Iterations 3
smoothSolver:  Solving for k, Initial residual = 0.0276802, Final residual = 8.19353e-07, No Iterations 8
ExecutionTime = 45.06 s  ClockTime = 152 s

Courant Number mean: 0.0129877 max: 1.30065
Interface Courant Number mean: 3.56554e-05 max: 0.103537
deltaT = 0.000212667
Time = 0.0009685750779

PIMPLE: iteration 1
AMI: Creating addressing and weights between 41828 source faces and 41828 target faces
AMI: Patch source sum(weights) min/max/average = 0.98808, 1.35342, 1.00207
AMI: Patch target sum(weights) min/max/average = 0.985055, 1.24159, 1.002
Execution time for mesh.update() = 1.59 s
GAMG:  Solving for pcorr, Initial residual = 1, Final residual = 0.0636416, No Iterations 4
time step continuity errors : sum local = 3.86093e-09, global = -6.65273e-11, cumulative = -2.1293e-07
MULES: Solving for alpha.water
Phase-1 volume fraction = 0.290108  Min(alpha.water) = -9.64535e-06  Max(alpha.water) = 1.00879
MULES: Solving for alpha.water
Phase-1 volume fraction = 0.290108  Min(alpha.water) = -9.6204e-06  Max(alpha.water) = 1.00862
smoothSolver:  Solving for Ux, Initial residual = 0.00434609, Final residual = 3.82272e-07, No Iterations 2
smoothSolver:  Solving for Uy, Initial residual = 0.00428487, Final residual = 4.02706e-07, No Iterations 2
smoothSolver:  Solving for Uz, Initial residual = 0.00303619, Final residual = 2.6238e-07, No Iterations 2
GAMG:  Solving for p_rgh, Initial residual = 0.0175784, Final residual = 0.000181277, No Iterations 3
time step continuity errors : sum local = 4.58892e-08, global = 1.30256e-09, cumulative = -2.11627e-07
PIMPLE: iteration 2
MULES: Solving for alpha.water
Phase-1 volume fraction = 0.290108  Min(alpha.water) = -9.64738e-06  Max(alpha.water) = 1.0083
MULES: Solving for alpha.water
Phase-1 volume fraction = 0.290108  Min(alpha.water) = -9.62431e-06  Max(alpha.water) = 1.00828
smoothSolver:  Solving for Ux, Initial residual = 0.000132583, Final residual = 5.48986e-08, No Iterations 2
smoothSolver:  Solving for Uy, Initial residual = 0.000129923, Final residual = 5.6111e-08, No Iterations 2
smoothSolver:  Solving for Uz, Initial residual = 9.8323e-05, Final residual = 5.31518e-08, No Iterations 2
GAMG:  Solving for p_rgh, Initial residual = 0.00330742, Final residual = 8.80962e-07, No Iterations 19
time step continuity errors : sum local = 2.20611e-10, global = 2.53825e-11, cumulative = -2.11602e-07
smoothSolver:  Solving for epsilon, Initial residual = 0.00728336, Final residual = 1.79812e-07, No Iterations 3
smoothSolver:  Solving for k, Initial residual = 0.0245807, Final residual = 6.70668e-08, No Iterations 4
ExecutionTime = 53.05 s  ClockTime = 177 s

Courant Number mean: 0.0144676 max: 1.49198
Interface Courant Number mean: 8.4343e-05 max: 0.112015
deltaT = 0.000212667
Time = 0.001181242555

PIMPLE: iteration 1
AMI: Creating addressing and weights between 41828 source faces and 41828 target faces
AMI: Patch source sum(weights) min/max/average = 0.986103, 1.3528, 1.00231
AMI: Patch target sum(weights) min/max/average = 0.983437, 1.25989, 1.00224
Execution time for mesh.update() = 1.63 s
GAMG:  Solving for pcorr, Initial residual = 1, Final residual = 0.0678203, No Iterations 4
time step continuity errors : sum local = 3.86216e-09, global = -5.99115e-11, cumulative = -2.11662e-07
MULES: Solving for alpha.water
Phase-1 volume fraction = 0.290108  Min(alpha.water) = -9.60124e-06  Max(alpha.water) = 1.00801
MULES: Solving for alpha.water
Phase-1 volume fraction = 0.290108  Min(alpha.water) = -9.57823e-06  Max(alpha.water) = 1.00759
smoothSolver:  Solving for Ux, Initial residual = 0.00370341, Final residual = 2.47798e-07, No Iterations 2
smoothSolver:  Solving for Uy, Initial residual = 0.00367118, Final residual = 2.61243e-07, No Iterations 2
smoothSolver:  Solving for Uz, Initial residual = 0.002614, Final residual = 1.62248e-07, No Iterations 2
GAMG:  Solving for p_rgh, Initial residual = 0.00940368, Final residual = 0.000186024, No Iterations 2
time step continuity errors : sum local = 4.61919e-08, global = 3.06944e-10, cumulative = -2.11355e-07
PIMPLE: iteration 2
MULES: Solving for alpha.water
Phase-1 volume fraction = 0.290108  Min(alpha.water) = -9.60301e-06  Max(alpha.water) = 1.00778
MULES: Solving for alpha.water
Phase-1 volume fraction = 0.290108  Min(alpha.water) = -9.58165e-06  Max(alpha.water) = 1.00747
smoothSolver:  Solving for Ux, Initial residual = 7.2433e-05, Final residual = 4.35419e-07, No Iterations 1
smoothSolver:  Solving for Uy, Initial residual = 7.34749e-05, Final residual = 4.61887e-07, No Iterations 1
smoothSolver:  Solving for Uz, Initial residual = 5.06105e-05, Final residual = 4.04993e-07, No Iterations 1
GAMG:  Solving for p_rgh, Initial residual = 0.00170824, Final residual = 3.49471e-07, No Iterations 10
time step continuity errors : sum local = 8.63828e-11, global = -4.17378e-13, cumulative = -2.11355e-07
smoothSolver:  Solving for epsilon, Initial residual = 0.00651946, Final residual = 8.44265e-08, No Iterations 3
smoothSolver:  Solving for k, Initial residual = 0.0223471, Final residual = 6.40893e-07, No Iterations 3
ExecutionTime = 59.86 s  ClockTime = 199 s

Courant Number mean: 0.0144665 max: 1.53226
Interface Courant Number mean: 0.000126933 max: 0.108627
deltaT = 0.00020712
Time = 0.001388362185

PIMPLE: iteration 1
AMI: Creating addressing and weights between 41828 source faces and 41828 target faces
AMI: Patch source sum(weights) min/max/average = 0.984394, 1.35461, 1.00254
AMI: Patch target sum(weights) min/max/average = 0.982434, 1.27306, 1.00246
Execution time for mesh.update() = 1.77 s
GAMG:  Solving for pcorr, Initial residual = 1, Final residual = 0.0708713, No Iterations 4
time step continuity errors : sum local = 3.67289e-09, global = -5.08409e-11, cumulative = -2.11406e-07
MULES: Solving for alpha.water
Phase-1 volume fraction = 0.290108  Min(alpha.water) = -9.56093e-06  Max(alpha.water) = 1.00705
MULES: Solving for alpha.water
Phase-1 volume fraction = 0.290108  Min(alpha.water) = -9.54026e-06  Max(alpha.water) = 1.00657
smoothSolver:  Solving for Ux, Initial residual = 0.00332143, Final residual = 1.91383e-07, No Iterations 2
smoothSolver:  Solving for Uy, Initial residual = 0.00330496, Final residual = 2.01914e-07, No Iterations 2
smoothSolver:  Solving for Uz, Initial residual = 0.00233749, Final residual = 1.18578e-07, No Iterations 2
GAMG:  Solving for p_rgh, Initial residual = 0.00718699, Final residual = 0.000126692, No Iterations 2
time step continuity errors : sum local = 2.95729e-08, global = 2.3332e-10, cumulative = -2.11173e-07
PIMPLE: iteration 2
MULES: Solving for alpha.water
Phase-1 volume fraction = 0.290108  Min(alpha.water) = -9.56156e-06  Max(alpha.water) = 1.00696
MULES: Solving for alpha.water
Phase-1 volume fraction = 0.290108  Min(alpha.water) = -9.54143e-06  Max(alpha.water) = 1.00654
smoothSolver:  Solving for Ux, Initial residual = 5.684e-05, Final residual = 2.9118e-07, No Iterations 1
smoothSolver:  Solving for Uy, Initial residual = 5.94509e-05, Final residual = 3.16557e-07, No Iterations 1
smoothSolver:  Solving for Uz, Initial residual = 3.82294e-05, Final residual = 2.71782e-07, No Iterations 1
GAMG:  Solving for p_rgh, Initial residual = 0.00127057, Final residual = 4.8501e-07, No Iterations 10
time step continuity errors : sum local = 1.12872e-10, global = -7.78117e-12, cumulative = -2.1118e-07
smoothSolver:  Solving for epsilon, Initial residual = 0.0059834, Final residual = 5.30691e-08, No Iterations 3
smoothSolver:  Solving for k, Initial residual = 0.0202073, Final residual = 3.87629e-07, No Iterations 3
ExecutionTime = 66.5 s  ClockTime = 219 s

Courant Number mean: 0.0140881 max: 1.52837
Interface Courant Number mean: 0.000126228 max: 0.102524
deltaT = 0.000201809
Time = 0.001590171055

PIMPLE: iteration 1
AMI: Creating addressing and weights between 41828 source faces and 41828 target faces
AMI: Patch source sum(weights) min/max/average = 0.98293, 1.35614, 1.00275
AMI: Patch target sum(weights) min/max/average = 0.981999, 1.28242, 1.00267
Execution time for mesh.update() = 1.56 s
GAMG:  Solving for pcorr, Initial residual = 1, Final residual = 0.0733734, No Iterations 4
time step continuity errors : sum local = 3.50631e-09, global = -5.42169e-11, cumulative = -2.11235e-07
MULES: Solving for alpha.water
Phase-1 volume fraction = 0.290108  Min(alpha.water) = -9.52192e-06  Max(alpha.water) = 1.00609
MULES: Solving for alpha.water
Phase-1 volume fraction = 0.290108  Min(alpha.water) = -9.50245e-06  Max(alpha.water) = 1.00562
smoothSolver:  Solving for Ux, Initial residual = 0.00305562, Final residual = 1.54509e-07, No Iterations 2
smoothSolver:  Solving for Uy, Initial residual = 0.00304775, Final residual = 1.63524e-07, No Iterations 2
smoothSolver:  Solving for Uz, Initial residual = 0.00213855, Final residual = 9.38763e-08, No Iterations 2
GAMG:  Solving for p_rgh, Initial residual = 0.00623396, Final residual = 0.000104986, No Iterations 2
time step continuity errors : sum local = 2.31085e-08, global = 1.10201e-10, cumulative = -2.11124e-07
PIMPLE: iteration 2
MULES: Solving for alpha.water
Phase-1 volume fraction = 0.290108  Min(alpha.water) = -9.52213e-06  Max(alpha.water) = 1.00608
MULES: Solving for alpha.water
Phase-1 volume fraction = 0.290108  Min(alpha.water) = -9.50278e-06  Max(alpha.water) = 1.00564
smoothSolver:  Solving for Ux, Initial residual = 4.79632e-05, Final residual = 2.25771e-07, No Iterations 1
smoothSolver:  Solving for Uy, Initial residual = 4.91692e-05, Final residual = 2.42752e-07, No Iterations 1
smoothSolver:  Solving for Uz, Initial residual = 3.32643e-05, Final residual = 2.06896e-07, No Iterations 1
GAMG:  Solving for p_rgh, Initial residual = 0.00103293, Final residual = 8.63973e-07, No Iterations 9
time step continuity errors : sum local = 1.89697e-10, global = -1.61e-11, cumulative = -2.11141e-07
smoothSolver:  Solving for epsilon, Initial residual = 0.00560337, Final residual = 3.88855e-08, No Iterations 3
smoothSolver:  Solving for k, Initial residual = 0.0184796, Final residual = 2.57384e-07, No Iterations 3
ExecutionTime = 73.05 s  ClockTime = 242 s

Courant Number mean: 0.0137259 max: 1.52135
Interface Courant Number mean: 0.000124181 max: 0.0968373
deltaT = 0.000198388
Time = 0.001788559436

PIMPLE: iteration 1
AMI: Creating addressing and weights between 41828 source faces and 41828 target faces
AMI: Patch source sum(weights) min/max/average = 0.981682, 1.35742, 1.00294
AMI: Patch target sum(weights) min/max/average = 0.98209, 1.30541, 1.00285
Execution time for mesh.update() = 1.57 s
GAMG:  Solving for pcorr, Initial residual = 1, Final residual = 0.0753834, No Iterations 4
time step continuity errors : sum local = 3.4025e-09, global = -4.35163e-11, cumulative = -2.11184e-07
MULES: Solving for alpha.water
Phase-1 volume fraction = 0.290108  Min(alpha.water) = -9.48384e-06  Max(alpha.water) = 1.00521
MULES: Solving for alpha.water
Phase-1 volume fraction = 0.290108  Min(alpha.water) = -9.46495e-06  Max(alpha.water) = 1.00478
smoothSolver:  Solving for Ux, Initial residual = 0.00286832, Final residual = 1.3158e-07, No Iterations 2
smoothSolver:  Solving for Uy, Initial residual = 0.00286362, Final residual = 1.39496e-07, No Iterations 2
smoothSolver:  Solving for Uz, Initial residual = 0.0019954, Final residual = 7.94922e-08, No Iterations 2
GAMG:  Solving for p_rgh, Initial residual = 0.00571777, Final residual = 9.28226e-05, No Iterations 2
time step continuity errors : sum local = 1.96137e-08, global = 4.66748e-11, cumulative = -2.11137e-07
PIMPLE: iteration 2
MULES: Solving for alpha.water
Phase-1 volume fraction = 0.290108  Min(alpha.water) = -9.48407e-06  Max(alpha.water) = 1.00523
MULES: Solving for alpha.water
Phase-1 volume fraction = 0.290108  Min(alpha.water) = -9.46531e-06  Max(alpha.water) = 1.00482
smoothSolver:  Solving for Ux, Initial residual = 4.26817e-05, Final residual = 1.93783e-07, No Iterations 1
smoothSolver:  Solving for Uy, Initial residual = 4.30159e-05, Final residual = 2.12277e-07, No Iterations 1
smoothSolver:  Solving for Uz, Initial residual = 3.05624e-05, Final residual = 1.73348e-07, No Iterations 1
GAMG:  Solving for p_rgh, Initial residual = 0.000900222, Final residual = 8.36741e-07, No Iterations 8
time step continuity errors : sum local = 1.7639e-10, global = -1.47803e-11, cumulative = -2.11152e-07
smoothSolver:  Solving for epsilon, Initial residual = 0.00540139, Final residual = 3.10742e-08, No Iterations 3
smoothSolver:  Solving for k, Initial residual = 0.017142, Final residual = 1.90154e-07, No Iterations 3
ExecutionTime = 79.39 s  ClockTime = 263 s

Courant Number mean: 0.0134924 max: 1.52314
Interface Courant Number mean: 0.000123412 max: 0.0923862
deltaT = 0.000195054
Time = 0.001983613559

PIMPLE: iteration 1
AMI: Creating addressing and weights between 41828 source faces and 41828 target faces
AMI: Patch source sum(weights) min/max/average = 0.980638, 1.35846, 1.00313
AMI: Patch target sum(weights) min/max/average = 0.981825, 1.33279, 1.00303
Execution time for mesh.update() = 1.46 s
GAMG:  Solving for pcorr, Initial residual = 1, Final residual = 0.0770772, No Iterations 4
time step continuity errors : sum local = 3.31301e-09, global = -4.81615e-11, cumulative = -2.112e-07
MULES: Solving for alpha.water
Phase-1 volume fraction = 0.290108  Min(alpha.water) = -9.44695e-06  Max(alpha.water) = 1.00443
MULES: Solving for alpha.water
Phase-1 volume fraction = 0.290108  Min(alpha.water) = -9.42863e-06  Max(alpha.water) = 1.00405
smoothSolver:  Solving for Ux, Initial residual = 0.00271185, Final residual = 1.13789e-07, No Iterations 2
smoothSolver:  Solving for Uy, Initial residual = 0.00270977, Final residual = 1.20764e-07, No Iterations 2
smoothSolver:  Solving for Uz, Initial residual = 0.00187097, Final residual = 6.85746e-08, No Iterations 2
GAMG:  Solving for p_rgh, Initial residual = 0.00524206, Final residual = 8.20217e-05, No Iterations 2
time step continuity errors : sum local = 1.66496e-08, global = -3.08345e-12, cumulative = -2.11203e-07
PIMPLE: iteration 2
MULES: Solving for alpha.water
Phase-1 volume fraction = 0.290108  Min(alpha.water) = -9.44718e-06  Max(alpha.water) = 1.00447
MULES: Solving for alpha.water
Phase-1 volume fraction = 0.290108  Min(alpha.water) = -9.429e-06  Max(alpha.water) = 1.0041
smoothSolver:  Solving for Ux, Initial residual = 3.7674e-05, Final residual = 1.66063e-07, No Iterations 1
smoothSolver:  Solving for Uy, Initial residual = 3.80065e-05, Final residual = 1.81745e-07, No Iterations 1
smoothSolver:  Solving for Uz, Initial residual = 2.72334e-05, Final residual = 1.42394e-07, No Iterations 1
GAMG:  Solving for p_rgh, Initial residual = 0.000787491, Final residual = 4.10911e-07, No Iterations 14
time step continuity errors : sum local = 8.32359e-11, global = -1.67269e-12, cumulative = -2.11205e-07
smoothSolver:  Solving for epsilon, Initial residual = 0.0051517, Final residual = 2.52076e-08, No Iterations 3
smoothSolver:  Solving for k, Initial residual = 0.0159467, Final residual = 1.46581e-07, No Iterations 3
ExecutionTime = 86.36 s  ClockTime = 284 s

Courant Number mean: 0.0132648 max: 1.5208
Interface Courant Number mean: 0.000122079 max: 0.0893637
deltaT = 0.000191803
Time = 0.002175416779

PIMPLE: iteration 1
AMI: Creating addressing and weights between 41828 source faces and 41828 target faces
AMI: Patch source sum(weights) min/max/average = 0.973868, 1.4033, 1.00325
AMI: Patch target sum(weights) min/max/average = 0.978281, 1.39057, 1.00316
Execution time for mesh.update() = 1.78 s
GAMG:  Solving for pcorr, Initial residual = 1, Final residual = 0.0788328, No Iterations 4
time step continuity errors : sum local = 3.24086e-09, global = -3.37602e-11, cumulative = -2.11239e-07
MULES: Solving for alpha.water
Phase-1 volume fraction = 0.290108  Min(alpha.water) = -9.4112e-06  Max(alpha.water) = 1.00376
MULES: Solving for alpha.water
Phase-1 volume fraction = 0.290108  Min(alpha.water) = -9.39344e-06  Max(alpha.water) = 1.00343
smoothSolver:  Solving for Ux, Initial residual = 0.00257963, Final residual = 9.95864e-08, No Iterations 2
smoothSolver:  Solving for Uy, Initial residual = 0.00258176, Final residual = 1.05889e-07, No Iterations 2
smoothSolver:  Solving for Uz, Initial residual = 0.00177359, Final residual = 6.00521e-08, No Iterations 2
GAMG:  Solving for p_rgh, Initial residual = 0.0049251, Final residual = 7.44592e-05, No Iterations 2
time step continuity errors : sum local = 1.4531e-08, global = 4.35155e-11, cumulative = -2.11195e-07
PIMPLE: iteration 2
MULES: Solving for alpha.water
Phase-1 volume fraction = 0.290108  Min(alpha.water) = -9.41144e-06  Max(alpha.water) = 1.0038
MULES: Solving for alpha.water
Phase-1 volume fraction = 0.290108  Min(alpha.water) = -9.39384e-06  Max(alpha.water) = 1.00348
smoothSolver:  Solving for Ux, Initial residual = 3.35532e-05, Final residual = 1.44694e-07, No Iterations 1
smoothSolver:  Solving for Uy, Initial residual = 3.47329e-05, Final residual = 1.56405e-07, No Iterations 1
smoothSolver:  Solving for Uz, Initial residual = 2.46407e-05, Final residual = 1.20895e-07, No Iterations 1
GAMG:  Solving for p_rgh, Initial residual = 0.000715708, Final residual = 7.27385e-07, No Iterations 7
time step continuity errors : sum local = 1.4168e-10, global = -1.05617e-11, cumulative = -2.11206e-07
smoothSolver:  Solving for epsilon, Initial residual = 0.00496242, Final residual = 9.93331e-07, No Iterations 2
smoothSolver:  Solving for k, Initial residual = 0.0148559, Final residual = 1.16474e-07, No Iterations 3
ExecutionTime = 93.44 s  ClockTime = 307 s

Courant Number mean: 0.0130431 max: 1.51509
Interface Courant Number mean: 0.000120455 max: 0.0870215
deltaT = 0.000188633
Time = 0.002364049698

PIMPLE: iteration 1
AMI: Creating addressing and weights between 41828 source faces and 41828 target faces
AMI: Patch source sum(weights) min/max/average = 0.94978, 1.43421, 1.00328
AMI: Patch target sum(weights) min/max/average = 0.974448, 1.43854, 1.00319
Execution time for mesh.update() = 1.63 s
GAMG:  Solving for pcorr, Initial residual = 1, Final residual = 0.0796263, No Iterations 4
time step continuity errors : sum local = 3.15885e-09, global = -4.23681e-11, cumulative = -2.11248e-07
MULES: Solving for alpha.water
Phase-1 volume fraction = 0.290108  Min(alpha.water) = -9.37661e-06  Max(alpha.water) = 1.00319
MULES: Solving for alpha.water
Phase-1 volume fraction = 0.290108  Min(alpha.water) = -9.35941e-06  Max(alpha.water) = 1.00292
smoothSolver:  Solving for Ux, Initial residual = 0.00246737, Final residual = 8.78789e-08, No Iterations 2
smoothSolver:  Solving for Uy, Initial residual = 0.00247277, Final residual = 9.36877e-08, No Iterations 2
smoothSolver:  Solving for Uz, Initial residual = 0.00169405, Final residual = 5.34439e-08, No Iterations 2
GAMG:  Solving for p_rgh, Initial residual = 0.00461909, Final residual = 6.58512e-05, No Iterations 2
time step continuity errors : sum local = 1.23612e-08, global = -1.23153e-11, cumulative = -2.11261e-07
PIMPLE: iteration 2
MULES: Solving for alpha.water
Phase-1 volume fraction = 0.290108  Min(alpha.water) = -9.37685e-06  Max(alpha.water) = 1.00323
MULES: Solving for alpha.water
Phase-1 volume fraction = 0.290108  Min(alpha.water) = -9.35983e-06  Max(alpha.water) = 1.00296
smoothSolver:  Solving for Ux, Initial residual = 3.03963e-05, Final residual = 1.26841e-07, No Iterations 1
smoothSolver:  Solving for Uy, Initial residual = 3.1633e-05, Final residual = 1.35162e-07, No Iterations 1
smoothSolver:  Solving for Uz, Initial residual = 2.23682e-05, Final residual = 1.0107e-07, No Iterations 1
GAMG:  Solving for p_rgh, Initial residual = 0.000649202, Final residual = 8.22165e-07, No Iterations 7
time step continuity errors : sum local = 1.5405e-10, global = -7.20019e-12, cumulative = -2.11268e-07
smoothSolver:  Solving for epsilon, Initial residual = 0.00481551, Final residual = 8.73658e-07, No Iterations 2
smoothSolver:  Solving for k, Initial residual = 0.0138983, Final residual = 9.43351e-08, No Iterations 3
ExecutionTime = 99.97 s  ClockTime = 329 s

Courant Number mean: 0.0128269 max: 1.50701
Interface Courant Number mean: 0.00011857 max: 0.0848137
deltaT = 0.000187074
Time = 0.002551123668

PIMPLE: iteration 1
AMI: Creating addressing and weights between 41828 source faces and 41828 target faces
AMI: Patch source sum(weights) min/max/average = 0.95324, 1.44827, 1.00331
AMI: Patch target sum(weights) min/max/average = 0.970777, 1.45479, 1.00322
Execution time for mesh.update() = 1.59 s
GAMG:  Solving for pcorr, Initial residual = 1, Final residual = 0.0804082, No Iterations 4
time step continuity errors : sum local = 3.13184e-09, global = -3.8473e-11, cumulative = -2.11306e-07
MULES: Solving for alpha.water
Phase-1 volume fraction = 0.290108  Min(alpha.water) = -9.343e-06  Max(alpha.water) = 1.00272
MULES: Solving for alpha.water
Phase-1 volume fraction = 0.290108  Min(alpha.water) = -9.32622e-06  Max(alpha.water) = 1.00249
smoothSolver:  Solving for Ux, Initial residual = 0.00239092, Final residual = 8.03065e-08, No Iterations 2
smoothSolver:  Solving for Uy, Initial residual = 0.00239993, Final residual = 8.57987e-08, No Iterations 2
smoothSolver:  Solving for Uz, Initial residual = 0.00163693, Final residual = 4.94276e-08, No Iterations 2
GAMG:  Solving for p_rgh, Initial residual = 0.00446797, Final residual = 6.22154e-05, No Iterations 2
time step continuity errors : sum local = 1.14181e-08, global = 1.16488e-11, cumulative = -2.11295e-07
PIMPLE: iteration 2
MULES: Solving for alpha.water
Phase-1 volume fraction = 0.290108  Min(alpha.water) = -9.34326e-06  Max(alpha.water) = 1.00276
MULES: Solving for alpha.water
Phase-1 volume fraction = 0.290108  Min(alpha.water) = -9.32666e-06  Max(alpha.water) = 1.00253
smoothSolver:  Solving for Ux, Initial residual = 2.8566e-05, Final residual = 1.14568e-07, No Iterations 1
smoothSolver:  Solving for Uy, Initial residual = 2.96147e-05, Final residual = 1.23197e-07, No Iterations 1
smoothSolver:  Solving for Uz, Initial residual = 2.07865e-05, Final residual = 8.92866e-08, No Iterations 1
GAMG:  Solving for p_rgh, Initial residual = 0.000604166, Final residual = 7.11912e-07, No Iterations 7
time step continuity errors : sum local = 1.30404e-10, global = -1.08213e-11, cumulative = -2.11305e-07
smoothSolver:  Solving for epsilon, Initial residual = 0.00468988, Final residual = 8.01718e-07, No Iterations 2
smoothSolver:  Solving for k, Initial residual = 0.0131451, Final residual = 8.0726e-08, No Iterations 3
ExecutionTime = 106.85 s  ClockTime = 351 s

Courant Number mean: 0.0127204 max: 1.5097
Interface Courant Number mean: 0.000117728 max: 0.0833939
deltaT = 0.000185528
Time = 0.002736651571

PIMPLE: iteration 1
AMI: Creating addressing and weights between 41828 source faces and 41828 target faces
AMI: Patch source sum(weights) min/max/average = 0.968875, 1.45967, 1.00339
AMI: Patch target sum(weights) min/max/average = 0.967193, 1.46137, 1.0033
Execution time for mesh.update() = 1.48 s
GAMG:  Solving for pcorr, Initial residual = 1, Final residual = 0.0809247, No Iterations 4
time step continuity errors : sum local = 3.10069e-09, global = -4.01603e-11, cumulative = -2.11346e-07
MULES: Solving for alpha.water
Phase-1 volume fraction = 0.290108  Min(alpha.water) = -9.31025e-06  Max(alpha.water) = 1.00232
MULES: Solving for alpha.water
Phase-1 volume fraction = 0.290108  Min(alpha.water) = -9.29388e-06  Max(alpha.water) = 1.00212
smoothSolver:  Solving for Ux, Initial residual = 0.00232177, Final residual = 7.36843e-08, No Iterations 2
smoothSolver:  Solving for Uy, Initial residual = 0.00233316, Final residual = 7.88771e-08, No Iterations 2
smoothSolver:  Solving for Uz, Initial residual = 0.00158492, Final residual = 4.61055e-08, No Iterations 2
GAMG:  Solving for p_rgh, Initial residual = 0.00425244, Final residual = 5.86434e-05, No Iterations 2
time step continuity errors : sum local = 1.05222e-08, global = -2.48252e-11, cumulative = -2.1137e-07
PIMPLE: iteration 2
MULES: Solving for alpha.water
Phase-1 volume fraction = 0.290108  Min(alpha.water) = -9.31051e-06  Max(alpha.water) = 1.00235
MULES: Solving for alpha.water
Phase-1 volume fraction = 0.290108  Min(alpha.water) = -9.29433e-06  Max(alpha.water) = 1.00216
smoothSolver:  Solving for Ux, Initial residual = 2.67089e-05, Final residual = 1.03076e-07, No Iterations 1
smoothSolver:  Solving for Uy, Initial residual = 2.75677e-05, Final residual = 1.10313e-07, No Iterations 1
smoothSolver:  Solving for Uz, Initial residual = 1.92713e-05, Final residual = 7.847e-08, No Iterations 1
GAMG:  Solving for p_rgh, Initial residual = 0.000558777, Final residual = 7.65358e-07, No Iterations 9
time step continuity errors : sum local = 1.37078e-10, global = -1.07709e-11, cumulative = -2.11381e-07
smoothSolver:  Solving for epsilon, Initial residual = 0.00458838, Final residual = 7.39283e-07, No Iterations 2
smoothSolver:  Solving for k, Initial residual = 0.0124565, Final residual = 6.94369e-08, No Iterations 3
ExecutionTime = 114.09 s  ClockTime = 374 s

Courant Number mean: 0.0126148 max: 1.51067
Interface Courant Number mean: 0.000116804 max: 0.0820287
deltaT = 0.000183995
Time = 0.002920646186

PIMPLE: iteration 1
AMI: Creating addressing and weights between 41828 source faces and 41828 target faces
AMI: Patch source sum(weights) min/max/average = 0.964746, 1.46503, 1.00344
AMI: Patch target sum(weights) min/max/average = 0.963133, 1.45362, 1.00335
Execution time for mesh.update() = 1.61 s
GAMG:  Solving for pcorr, Initial residual = 1, Final residual = 0.0812183, No Iterations 4
time step continuity errors : sum local = 3.06844e-09, global = -3.91194e-11, cumulative = -2.1142e-07
MULES: Solving for alpha.water
Phase-1 volume fraction = 0.290108  Min(alpha.water) = -9.27834e-06  Max(alpha.water) = 1.00198
MULES: Solving for alpha.water
Phase-1 volume fraction = 0.290108  Min(alpha.water) = -9.26238e-06  Max(alpha.water) = 1.00182
smoothSolver:  Solving for Ux, Initial residual = 0.00226027, Final residual = 6.78818e-08, No Iterations 2
smoothSolver:  Solving for Uy, Initial residual = 0.00227381, Final residual = 7.28467e-08, No Iterations 2
smoothSolver:  Solving for Uz, Initial residual = 0.00153813, Final residual = 4.32127e-08, No Iterations 2
GAMG:  Solving for p_rgh, Initial residual = 0.00408404, Final residual = 5.58689e-05, No Iterations 2
time step continuity errors : sum local = 9.80298e-09, global = 3.1262e-11, cumulative = -2.11389e-07
PIMPLE: iteration 2
MULES: Solving for alpha.water
Phase-1 volume fraction = 0.290108  Min(alpha.water) = -9.2786e-06  Max(alpha.water) = 1.00201
MULES: Solving for alpha.water
Phase-1 volume fraction = 0.290108  Min(alpha.water) = -9.26284e-06  Max(alpha.water) = 1.00185
smoothSolver:  Solving for Ux, Initial residual = 2.50359e-05, Final residual = 9.26796e-08, No Iterations 1
smoothSolver:  Solving for Uy, Initial residual = 2.58431e-05, Final residual = 9.8822e-08, No Iterations 1
smoothSolver:  Solving for Uz, Initial residual = 1.81434e-05, Final residual = 6.96061e-08, No Iterations 1
GAMG:  Solving for p_rgh, Initial residual = 0.000523911, Final residual = 9.97684e-07, No Iterations 6
time step continuity errors : sum local = 1.74759e-10, global = -1.78597e-11, cumulative = -2.11407e-07
smoothSolver:  Solving for epsilon, Initial residual = 0.00449126, Final residual = 6.7985e-07, No Iterations 2
smoothSolver:  Solving for k, Initial residual = 0.0118064, Final residual = 5.99048e-08, No Iterations 3
ExecutionTime = 120.6 s  ClockTime = 395 s

Courant Number mean: 0.0125101 max: 1.51009
Interface Courant Number mean: 0.000116317 max: 0.0807112
deltaT = 0.000182474
Time = 0.003103120185

PIMPLE: iteration 1
AMI: Creating addressing and weights between 41828 source faces and 41828 target faces
AMI: Patch source sum(weights) min/max/average = 0.959484, 1.46488, 1.00347
AMI: Patch target sum(weights) min/max/average = 0.957389, 1.43842, 1.00337
Execution time for mesh.update() = 1.57 s
GAMG:  Solving for pcorr, Initial residual = 1, Final residual = 0.0817048, No Iterations 4
time step continuity errors : sum local = 3.04631e-09, global = -3.50545e-11, cumulative = -2.11442e-07
MULES: Solving for alpha.water
Phase-1 volume fraction = 0.290108  Min(alpha.water) = -9.24726e-06  Max(alpha.water) = 1.00171
MULES: Solving for alpha.water
Phase-1 volume fraction = 0.290108  Min(alpha.water) = -9.23171e-06  Max(alpha.water) = 1.00157
smoothSolver:  Solving for Ux, Initial residual = 0.00220461, Final residual = 6.28303e-08, No Iterations 2
smoothSolver:  Solving for Uy, Initial residual = 0.00221933, Final residual = 6.75375e-08, No Iterations 2
smoothSolver:  Solving for Uz, Initial residual = 0.00149706, Final residual = 4.06157e-08, No Iterations 2
GAMG:  Solving for p_rgh, Initial residual = 0.00394579, Final residual = 5.31851e-05, No Iterations 2
time step continuity errors : sum local = 9.12763e-09, global = 2.73514e-11, cumulative = -2.11415e-07
PIMPLE: iteration 2
MULES: Solving for alpha.water
Phase-1 volume fraction = 0.290108  Min(alpha.water) = -9.24752e-06  Max(alpha.water) = 1.00173
MULES: Solving for alpha.water
Phase-1 volume fraction = 0.290108  Min(alpha.water) = -9.23217e-06  Max(alpha.water) = 1.0016
smoothSolver:  Solving for Ux, Initial residual = 2.34019e-05, Final residual = 8.03189e-08, No Iterations 1
smoothSolver:  Solving for Uy, Initial residual = 2.43344e-05, Final residual = 8.51528e-08, No Iterations 1
smoothSolver:  Solving for Uz, Initial residual = 1.71207e-05, Final residual = 6.26784e-08, No Iterations 1
GAMG:  Solving for p_rgh, Initial residual = 0.00049213, Final residual = 6.24073e-07, No Iterations 8
time step continuity errors : sum local = 1.06931e-10, global = -5.09151e-12, cumulative = -2.1142e-07
smoothSolver:  Solving for epsilon, Initial residual = 0.00437867, Final residual = 6.23603e-07, No Iterations 2
smoothSolver:  Solving for k, Initial residual = 0.0112013, Final residual = 5.17719e-08, No Iterations 3
ExecutionTime = 126.93 s  ClockTime = 417 s

Courant Number mean: 0.0124062 max: 1.5082
Interface Courant Number mean: 0.000115547 max: 0.0794384
deltaT = 0.000180966
Time = 0.003284086134

PIMPLE: iteration 1
AMI: Creating addressing and weights between 41828 source faces and 41828 target faces
AMI: Patch source sum(weights) min/max/average = 0.959602, 1.45691, 1.00347
AMI: Patch target sum(weights) min/max/average = 0.952211, 1.4386, 1.00338
Execution time for mesh.update() = 1.55 s
GAMG:  Solving for pcorr, Initial residual = 1, Final residual = 0.0820097, No Iterations 4
time step continuity errors : sum local = 3.01315e-09, global = -2.29093e-11, cumulative = -2.11443e-07
MULES: Solving for alpha.water
Phase-1 volume fraction = 0.290108  Min(alpha.water) = -9.21699e-06  Max(alpha.water) = 1.00147
MULES: Solving for alpha.water
Phase-1 volume fraction = 0.290108  Min(alpha.water) = -9.20185e-06  Max(alpha.water) = 1.00136
smoothSolver:  Solving for Ux, Initial residual = 0.00215335, Final residual = 5.83888e-08, No Iterations 2
smoothSolver:  Solving for Uy, Initial residual = 0.00216888, Final residual = 6.2877e-08, No Iterations 2
smoothSolver:  Solving for Uz, Initial residual = 0.00145744, Final residual = 3.82769e-08, No Iterations 2
GAMG:  Solving for p_rgh, Initial residual = 0.00382593, Final residual = 5.19896e-05, No Iterations 2
time step continuity errors : sum local = 8.72894e-09, global = 1.38958e-10, cumulative = -2.11304e-07
PIMPLE: iteration 2
MULES: Solving for alpha.water
Phase-1 volume fraction = 0.290108  Min(alpha.water) = -9.21725e-06  Max(alpha.water) = 1.00149
MULES: Solving for alpha.water
Phase-1 volume fraction = 0.290108  Min(alpha.water) = -9.2023e-06  Max(alpha.water) = 1.00138
smoothSolver:  Solving for Ux, Initial residual = 2.21094e-05, Final residual = 7.28252e-08, No Iterations 1
smoothSolver:  Solving for Uy, Initial residual = 2.30771e-05, Final residual = 7.65056e-08, No Iterations 1
smoothSolver:  Solving for Uz, Initial residual = 1.61741e-05, Final residual = 5.70381e-08, No Iterations 1
GAMG:  Solving for p_rgh, Initial residual = 0.00046643, Final residual = 5.41585e-07, No Iterations 8
time step continuity errors : sum local = 9.07931e-11, global = -5.78337e-12, cumulative = -2.11309e-07
smoothSolver:  Solving for epsilon, Initial residual = 0.00426996, Final residual = 5.71335e-07, No Iterations 2
smoothSolver:  Solving for k, Initial residual = 0.0106341, Final residual = 4.48114e-08, No Iterations 3
ExecutionTime = 133.5 s  ClockTime = 439 s

Courant Number mean: 0.0123032 max: 1.50511
Interface Courant Number mean: 0.000114784 max: 0.0782039
deltaT = 0.00017947
Time = 0.003463556496

PIMPLE: iteration 1
AMI: Creating addressing and weights between 41828 source faces and 41828 target faces
AMI: Patch source sum(weights) min/max/average = 0.96086, 1.44097, 1.00347
AMI: Patch target sum(weights) min/max/average = 0.947592, 1.42994, 1.00337
Execution time for mesh.update() = 1.6 s
GAMG:  Solving for pcorr, Initial residual = 1, Final residual = 0.082379, No Iterations 4
time step continuity errors : sum local = 2.9876e-09, global = -1.9652e-11, cumulative = -2.11329e-07
MULES: Solving for alpha.water
Phase-1 volume fraction = 0.290108  Min(alpha.water) = -9.18752e-06  Max(alpha.water) = 1.00128
MULES: Solving for alpha.water
Phase-1 volume fraction = 0.290108  Min(alpha.water) = -9.17277e-06  Max(alpha.water) = 1.00119
smoothSolver:  Solving for Ux, Initial residual = 0.00210577, Final residual = 5.45058e-08, No Iterations 2
smoothSolver:  Solving for Uy, Initial residual = 0.00212143, Final residual = 5.87755e-08, No Iterations 2
smoothSolver:  Solving for Uz, Initial residual = 0.00142114, Final residual = 3.61542e-08, No Iterations 2
GAMG:  Solving for p_rgh, Initial residual = 0.00372521, Final residual = 5.05633e-05, No Iterations 2
time step continuity errors : sum local = 8.30618e-09, global = 1.45857e-10, cumulative = -2.11183e-07
PIMPLE: iteration 2
MULES: Solving for alpha.water
Phase-1 volume fraction = 0.290108  Min(alpha.water) = -9.18778e-06  Max(alpha.water) = 1.0013
MULES: Solving for alpha.water
Phase-1 volume fraction = 0.290108  Min(alpha.water) = -9.17323e-06  Max(alpha.water) = 1.0012
smoothSolver:  Solving for Ux, Initial residual = 2.11322e-05, Final residual = 6.62165e-08, No Iterations 1
smoothSolver:  Solving for Uy, Initial residual = 2.18822e-05, Final residual = 7.09873e-08, No Iterations 1
smoothSolver:  Solving for Uz, Initial residual = 1.50872e-05, Final residual = 5.14873e-08, No Iterations 1
GAMG:  Solving for p_rgh, Initial residual = 0.000441133, Final residual = 6.90018e-07, No Iterations 6
time step continuity errors : sum local = 1.13189e-10, global = 1.4846e-11, cumulative = -2.11168e-07
smoothSolver:  Solving for epsilon, Initial residual = 0.00415977, Final residual = 5.22959e-07, No Iterations 2
smoothSolver:  Solving for k, Initial residual = 0.0101097, Final residual = 3.88491e-08, No Iterations 3
ExecutionTime = 140.8 s  ClockTime = 462 s

Courant Number mean: 0.012201 max: 1.50092
Interface Courant Number mean: 0.000113851 max: 0.0770167
deltaT = 0.000177987
Time = 0.003641543632

PIMPLE: iteration 1
AMI: Creating addressing and weights between 41828 source faces and 41828 target faces
AMI: Patch source sum(weights) min/max/average = 0.956532, 1.45472, 1.00345
AMI: Patch target sum(weights) min/max/average = 0.943526, 1.43705, 1.00335
Execution time for mesh.update() = 1.68 s
GAMG:  Solving for pcorr, Initial residual = 1, Final residual = 0.0827412, No Iterations 4
time step continuity errors : sum local = 2.96421e-09, global = -7.34655e-13, cumulative = -2.11169e-07
MULES: Solving for alpha.water
Phase-1 volume fraction = 0.290108  Min(alpha.water) = -9.15884e-06  Max(alpha.water) = 1.00112
MULES: Solving for alpha.water
Phase-1 volume fraction = 0.290108  Min(alpha.water) = -9.14447e-06  Max(alpha.water) = 1.00104
smoothSolver:  Solving for Ux, Initial residual = 0.00206164, Final residual = 5.11725e-08, No Iterations 2
smoothSolver:  Solving for Uy, Initial residual = 0.00207632, Final residual = 5.5215e-08, No Iterations 2
smoothSolver:  Solving for Uz, Initial residual = 0.00138637, Final residual = 3.42151e-08, No Iterations 2
GAMG:  Solving for p_rgh, Initial residual = 0.00365261, Final residual = 4.89344e-05, No Iterations 2
time step continuity errors : sum local = 7.86637e-09, global = 3.74494e-11, cumulative = -2.11132e-07
PIMPLE: iteration 2
MULES: Solving for alpha.water
Phase-1 volume fraction = 0.290108  Min(alpha.water) = -9.15909e-06  Max(alpha.water) = 1.00113
MULES: Solving for alpha.water
Phase-1 volume fraction = 0.290108  Min(alpha.water) = -9.14492e-06  Max(alpha.water) = 1.00105
smoothSolver:  Solving for Ux, Initial residual = 1.99706e-05, Final residual = 6.14837e-08, No Iterations 1
smoothSolver:  Solving for Uy, Initial residual = 2.08636e-05, Final residual = 6.61813e-08, No Iterations 1
smoothSolver:  Solving for Uz, Initial residual = 1.43239e-05, Final residual = 4.63909e-08, No Iterations 1
GAMG:  Solving for p_rgh, Initial residual = 0.000421916, Final residual = 3.72364e-07, No Iterations 6
time step continuity errors : sum local = 5.97766e-11, global = 4.89132e-12, cumulative = -2.11127e-07
smoothSolver:  Solving for epsilon, Initial residual = 0.00406175, Final residual = 4.81371e-07, No Iterations 2
smoothSolver:  Solving for k, Initial residual = 0.00962349, Final residual = 3.37473e-08, No Iterations 3
ExecutionTime = 147.97 s  ClockTime = 486 s

Courant Number mean: 0.0120997 max: 1.49576
Interface Courant Number mean: 0.000112825 max: 0.0758625
deltaT = 0.000177987
Time = 0.003819530769

PIMPLE: iteration 1
AMI: Creating addressing and weights between 41828 source faces and 41828 target faces
AMI: Patch source sum(weights) min/max/average = 0.952593, 1.46867, 1.00343
AMI: Patch target sum(weights) min/max/average = 0.940381, 1.44393, 1.00333
Execution time for mesh.update() = 1.54 s
GAMG:  Solving for pcorr, Initial residual = 1, Final residual = 0.0828836, No Iterations 4
time step continuity errors : sum local = 2.96992e-09, global = -1.29524e-11, cumulative = -2.1114e-07
MULES: Solving for alpha.water
Phase-1 volume fraction = 0.290108  Min(alpha.water) = -9.1308e-06  Max(alpha.water) = 1.00098
MULES: Solving for alpha.water
Phase-1 volume fraction = 0.290108  Min(alpha.water) = -9.11669e-06  Max(alpha.water) = 1.00092
smoothSolver:  Solving for Ux, Initial residual = 0.00203671, Final residual = 4.96844e-08, No Iterations 2
smoothSolver:  Solving for Uy, Initial residual = 0.00205091, Final residual = 5.35703e-08, No Iterations 2
smoothSolver:  Solving for Uz, Initial residual = 0.00136785, Final residual = 3.33881e-08, No Iterations 2
GAMG:  Solving for p_rgh, Initial residual = 0.00367553, Final residual = 4.97992e-05, No Iterations 2
time step continuity errors : sum local = 7.96132e-09, global = -4.02504e-11, cumulative = -2.1118e-07
PIMPLE: iteration 2
MULES: Solving for alpha.water
Phase-1 volume fraction = 0.290108  Min(alpha.water) = -9.13105e-06  Max(alpha.water) = 1.00099
MULES: Solving for alpha.water
Phase-1 volume fraction = 0.290108  Min(alpha.water) = -9.11715e-06  Max(alpha.water) = 1.00093
smoothSolver:  Solving for Ux, Initial residual = 1.93246e-05, Final residual = 5.92547e-08, No Iterations 1
smoothSolver:  Solving for Uy, Initial residual = 2.01278e-05, Final residual = 6.36554e-08, No Iterations 1
smoothSolver:  Solving for Uz, Initial residual = 1.40779e-05, Final residual = 4.48471e-08, No Iterations 1
GAMG:  Solving for p_rgh, Initial residual = 0.000408996, Final residual = 3.63526e-07, No Iterations 7
time step continuity errors : sum local = 5.80291e-11, global = -5.36626e-12, cumulative = -2.11185e-07
smoothSolver:  Solving for epsilon, Initial residual = 0.0039968, Final residual = 4.58069e-07, No Iterations 2
smoothSolver:  Solving for k, Initial residual = 0.00923769, Final residual = 3.07476e-08, No Iterations 3
ExecutionTime = 154.84 s  ClockTime = 508 s

Courant Number mean: 0.0120992 max: 1.50219
Interface Courant Number mean: 0.00011277 max: 0.0753599
deltaT = 0.000176504
Time = 0.003996034679

PIMPLE: iteration 1
AMI: Creating addressing and weights between 41828 source faces and 41828 target faces
AMI: Patch source sum(weights) min/max/average = 0.944691, 1.5081, 1.00341
AMI: Patch target sum(weights) min/max/average = 0.938566, 1.45052, 1.00331
Execution time for mesh.update() = 1.58 s
GAMG:  Solving for pcorr, Initial residual = 1, Final residual = 0.083085, No Iterations 4
time step continuity errors : sum local = 2.94185e-09, global = -2.39441e-11, cumulative = -2.11209e-07
MULES: Solving for alpha.water
Phase-1 volume fraction = 0.290108  Min(alpha.water) = -9.10339e-06  Max(alpha.water) = 1.00087
MULES: Solving for alpha.water
Phase-1 volume fraction = 0.290108  Min(alpha.water) = -9.08967e-06  Max(alpha.water) = 1.00082
smoothSolver:  Solving for Ux, Initial residual = 0.00199422, Final residual = 4.72104e-08, No Iterations 2
smoothSolver:  Solving for Uy, Initial residual = 0.00200721, Final residual = 5.08112e-08, No Iterations 2
smoothSolver:  Solving for Uz, Initial residual = 0.00133685, Final residual = 3.17091e-08, No Iterations 2
GAMG:  Solving for p_rgh, Initial residual = 0.00352155, Final residual = 4.77334e-05, No Iterations 2
time step continuity errors : sum local = 7.46808e-09, global = -6.82e-11, cumulative = -2.11277e-07
PIMPLE: iteration 2
MULES: Solving for alpha.water
Phase-1 volume fraction = 0.290108  Min(alpha.water) = -9.10364e-06  Max(alpha.water) = 1.00088
MULES: Solving for alpha.water
Phase-1 volume fraction = 0.290108  Min(alpha.water) = -9.09011e-06  Max(alpha.water) = 1.00082
smoothSolver:  Solving for Ux, Initial residual = 1.84121e-05, Final residual = 5.57678e-08, No Iterations 1
smoothSolver:  Solving for Uy, Initial residual = 1.90992e-05, Final residual = 6.0106e-08, No Iterations 1
smoothSolver:  Solving for Uz, Initial residual = 1.32869e-05, Final residual = 4.1019e-08, No Iterations 1
GAMG:  Solving for p_rgh, Initial residual = 0.000386336, Final residual = 8.47046e-07, No Iterations 5
time step continuity errors : sum local = 1.32352e-10, global = -1.59576e-11, cumulative = -2.11293e-07
smoothSolver:  Solving for epsilon, Initial residual = 0.0038893, Final residual = 4.21029e-07, No Iterations 2
smoothSolver:  Solving for k, Initial residual = 0.00879935, Final residual = 2.68319e-08, No Iterations 3
ExecutionTime = 162.56 s  ClockTime = 532 s

Courant Number mean: 0.0119979 max: 1.49525
Interface Courant Number mean: 0.000111803 max: 0.0742509
deltaT = 0.000176504
Time = 0.004172538589

PIMPLE: iteration 1
AMI: Creating addressing and weights between 41828 source faces and 41828 target faces
AMI: Patch source sum(weights) min/max/average = 0.939269, 1.5155, 1.00338
AMI: Patch target sum(weights) min/max/average = 0.939735, 1.45681, 1.00328
Execution time for mesh.update() = 1.71 s
GAMG:  Solving for pcorr, Initial residual = 1, Final residual = 0.0832465, No Iterations 4
time step continuity errors : sum local = 2.95874e-09, global = -3.49601e-11, cumulative = -2.11328e-07
MULES: Solving for alpha.water
Phase-1 volume fraction = 0.290108  Min(alpha.water) = -9.07661e-06  Max(alpha.water) = 1.00081
MULES: Solving for alpha.water
Phase-1 volume fraction = 0.290108  Min(alpha.water) = -9.06314e-06  Max(alpha.water) = 1.0008
smoothSolver:  Solving for Ux, Initial residual = 0.0019724, Final residual = 4.62618e-08, No Iterations 2
smoothSolver:  Solving for Uy, Initial residual = 0.00198378, Final residual = 4.97081e-08, No Iterations 2
smoothSolver:  Solving for Uz, Initial residual = 0.00131997, Final residual = 3.10707e-08, No Iterations 2
GAMG:  Solving for p_rgh, Initial residual = 0.00356542, Final residual = 4.89688e-05, No Iterations 2
time step continuity errors : sum local = 7.62168e-09, global = -1.13919e-10, cumulative = -2.11442e-07
PIMPLE: iteration 2
MULES: Solving for alpha.water
Phase-1 volume fraction = 0.290108  Min(alpha.water) = -9.07686e-06  Max(alpha.water) = 1.00081
MULES: Solving for alpha.water
Phase-1 volume fraction = 0.290108  Min(alpha.water) = -9.06359e-06  Max(alpha.water) = 1.0008
smoothSolver:  Solving for Ux, Initial residual = 1.80026e-05, Final residual = 5.34338e-08, No Iterations 1
smoothSolver:  Solving for Uy, Initial residual = 1.86166e-05, Final residual = 5.72209e-08, No Iterations 1
smoothSolver:  Solving for Uz, Initial residual = 1.2994e-05, Final residual = 4.02644e-08, No Iterations 1
GAMG:  Solving for p_rgh, Initial residual = 0.000379366, Final residual = 6.82521e-07, No Iterations 7
time step continuity errors : sum local = 1.0608e-10, global = -8.9401e-12, cumulative = -2.11451e-07
smoothSolver:  Solving for epsilon, Initial residual = 0.00380295, Final residual = 4.00591e-07, No Iterations 2
smoothSolver:  Solving for k, Initial residual = 0.00845808, Final residual = 2.45716e-08, No Iterations 3
ExecutionTime = 170.38 s  ClockTime = 559 s

Courant Number mean: 0.0119974 max: 1.50012
Interface Courant Number mean: 0.000111826 max: 0.0737806
deltaT = 0.000175021
Time = 0.004347559274

PIMPLE: iteration 1
AMI: Creating addressing and weights between 41828 source faces and 41828 target faces
AMI: Patch source sum(weights) min/max/average = 0.943597, 1.51548, 1.00335
AMI: Patch target sum(weights) min/max/average = 0.942418, 1.46276, 1.00325
Execution time for mesh.update() = 1.74 s
GAMG:  Solving for pcorr, Initial residual = 1, Final residual = 0.0837126, No Iterations 4
time step continuity errors : sum local = 2.93834e-09, global = -2.28366e-11, cumulative = -2.11474e-07
MULES: Solving for alpha.water
Phase-1 volume fraction = 0.290108  Min(alpha.water) = -9.05045e-06  Max(alpha.water) = 1.00079
MULES: Solving for alpha.water
Phase-1 volume fraction = 0.290108  Min(alpha.water) = -9.03735e-06  Max(alpha.water) = 1.00078
smoothSolver:  Solving for Ux, Initial residual = 0.00193282, Final residual = 4.42807e-08, No Iterations 2
smoothSolver:  Solving for Uy, Initial residual = 0.00194239, Final residual = 4.7423e-08, No Iterations 2
smoothSolver:  Solving for Uz, Initial residual = 0.00129183, Final residual = 2.96048e-08, No Iterations 2
GAMG:  Solving for p_rgh, Initial residual = 0.00342036, Final residual = 4.59489e-05, No Iterations 2
time step continuity errors : sum local = 7.00006e-09, global = 3.0152e-12, cumulative = -2.11471e-07
PIMPLE: iteration 2
MULES: Solving for alpha.water
Phase-1 volume fraction = 0.290108  Min(alpha.water) = -9.05069e-06  Max(alpha.water) = 1.00079
MULES: Solving for alpha.water
Phase-1 volume fraction = 0.290108  Min(alpha.water) = -9.03778e-06  Max(alpha.water) = 1.00078
smoothSolver:  Solving for Ux, Initial residual = 1.67864e-05, Final residual = 4.90574e-08, No Iterations 1
smoothSolver:  Solving for Uy, Initial residual = 1.76278e-05, Final residual = 5.30712e-08, No Iterations 1
smoothSolver:  Solving for Uz, Initial residual = 1.22876e-05, Final residual = 3.75487e-08, No Iterations 1
GAMG:  Solving for p_rgh, Initial residual = 0.000360657, Final residual = 9.63603e-07, No Iterations 6
time step continuity errors : sum local = 1.4662e-10, global = 3.18619e-12, cumulative = -2.11468e-07
smoothSolver:  Solving for epsilon, Initial residual = 0.00367716, Final residual = 3.68033e-07, No Iterations 2
smoothSolver:  Solving for k, Initial residual = 0.00807684, Final residual = 2.15624e-08, No Iterations 3
ExecutionTime = 177.58 s  ClockTime = 582 s

Courant Number mean: 0.0118962 max: 1.49167
Interface Courant Number mean: 0.000110848 max: 0.0727021
deltaT = 0.000175021
Time = 0.004522579958

PIMPLE: iteration 1
AMI: Creating addressing and weights between 41828 source faces and 41828 target faces
AMI: Patch source sum(weights) min/max/average = 0.943883, 1.50961, 1.00336
AMI: Patch target sum(weights) min/max/average = 0.938667, 1.46313, 1.00326
Execution time for mesh.update() = 1.79 s
GAMG:  Solving for pcorr, Initial residual = 1, Final residual = 0.0838117, No Iterations 4
time step continuity errors : sum local = 2.95022e-09, global = -1.97907e-11, cumulative = -2.11488e-07
MULES: Solving for alpha.water
Phase-1 volume fraction = 0.290108  Min(alpha.water) = -9.02489e-06  Max(alpha.water) = 1.00077
MULES: Solving for alpha.water
Phase-1 volume fraction = 0.290108  Min(alpha.water) = -9.01203e-06  Max(alpha.water) = 1.00076
smoothSolver:  Solving for Ux, Initial residual = 0.00191419, Final residual = 4.3712e-08, No Iterations 2
smoothSolver:  Solving for Uy, Initial residual = 0.00192172, Final residual = 4.66583e-08, No Iterations 2
smoothSolver:  Solving for Uz, Initial residual = 0.00127805, Final residual = 2.9069e-08, No Iterations 2
GAMG:  Solving for p_rgh, Initial residual = 0.00345187, Final residual = 4.64474e-05, No Iterations 2
time step continuity errors : sum local = 7.04035e-09, global = 2.20792e-11, cumulative = -2.11466e-07
PIMPLE: iteration 2
MULES: Solving for alpha.water
Phase-1 volume fraction = 0.290108  Min(alpha.water) = -8.68296e-06  Max(alpha.water) = 1.00077
MULES: Solving for alpha.water
Phase-1 volume fraction = 0.290108  Min(alpha.water) = -8.6698e-06  Max(alpha.water) = 1.00076
smoothSolver:  Solving for Ux, Initial residual = 1.6349e-05, Final residual = 4.76734e-08, No Iterations 1
smoothSolver:  Solving for Uy, Initial residual = 1.71516e-05, Final residual = 5.13614e-08, No Iterations 1
smoothSolver:  Solving for Uz, Initial residual = 1.20737e-05, Final residual = 3.72644e-08, No Iterations 1
GAMG:  Solving for p_rgh, Initial residual = 0.000358271, Final residual = 5.28072e-07, No Iterations 7
time step continuity errors : sum local = 7.9938e-11, global = -1.71732e-12, cumulative = -2.11467e-07
smoothSolver:  Solving for epsilon, Initial residual = 0.00358273, Final residual = 3.50514e-07, No Iterations 2
smoothSolver:  Solving for k, Initial residual = 0.00778547, Final residual = 9.3933e-07, No Iterations 2
ExecutionTime = 184.96 s  ClockTime = 605 s

Courant Number mean: 0.0118957 max: 1.49531
Interface Courant Number mean: 0.000110819 max: 0.0722483
deltaT = 0.000175021
Time = 0.004697600642

PIMPLE: iteration 1
AMI: Creating addressing and weights between 41828 source faces and 41828 target faces
AMI: Patch source sum(weights) min/max/average = 0.944326, 1.49951, 1.00342
AMI: Patch target sum(weights) min/max/average = 0.928441, 1.4544, 1.00332
Execution time for mesh.update() = 1.68 s
GAMG:  Solving for pcorr, Initial residual = 1, Final residual = 0.0840822, No Iterations 4
time step continuity errors : sum local = 2.96252e-09, global = -1.99912e-11, cumulative = -2.11487e-07
MULES: Solving for alpha.water
Phase-1 volume fraction = 0.290108  Min(alpha.water) = -8.65667e-06  Max(alpha.water) = 1.00075
MULES: Solving for alpha.water
Phase-1 volume fraction = 0.290108  Min(alpha.water) = -8.64356e-06  Max(alpha.water) = 1.00074
smoothSolver:  Solving for Ux, Initial residual = 0.00189459, Final residual = 4.32801e-08, No Iterations 2
smoothSolver:  Solving for Uy, Initial residual = 0.0019002, Final residual = 4.59834e-08, No Iterations 2
smoothSolver:  Solving for Uz, Initial residual = 0.00126277, Final residual = 2.85442e-08, No Iterations 2
GAMG:  Solving for p_rgh, Initial residual = 0.00343127, Final residual = 4.56474e-05, No Iterations 2
time step continuity errors : sum local = 6.88359e-09, global = 3.52995e-11, cumulative = -2.11452e-07
PIMPLE: iteration 2
MULES: Solving for alpha.water
Phase-1 volume fraction = 0.290108  Min(alpha.water) = -8.6569e-06  Max(alpha.water) = 1.00075
MULES: Solving for alpha.water
Phase-1 volume fraction = 0.290108  Min(alpha.water) = -8.64397e-06  Max(alpha.water) = 1.00073
smoothSolver:  Solving for Ux, Initial residual = 1.59066e-05, Final residual = 4.68311e-08, No Iterations 1
smoothSolver:  Solving for Uy, Initial residual = 1.67339e-05, Final residual = 5.03576e-08, No Iterations 1
smoothSolver:  Solving for Uz, Initial residual = 1.18171e-05, Final residual = 3.67477e-08, No Iterations 1
GAMG:  Solving for p_rgh, Initial residual = 0.000349518, Final residual = 6.08715e-07, No Iterations 7
time step continuity errors : sum local = 9.16744e-11, global = 6.50365e-12, cumulative = -2.11446e-07
smoothSolver:  Solving for epsilon, Initial residual = 0.00349468, Final residual = 3.33845e-07, No Iterations 2
smoothSolver:  Solving for k, Initial residual = 0.00751098, Final residual = 8.7526e-07, No Iterations 2
ExecutionTime = 192.09 s  ClockTime = 628 s

Courant Number mean: 0.0118953 max: 1.49862
Interface Courant Number mean: 0.000110751 max: 0.0718032
deltaT = 0.000175021
Time = 0.004872621326

PIMPLE: iteration 1
AMI: Creating addressing and weights between 41828 source faces and 41828 target faces
AMI: Patch source sum(weights) min/max/average = 0.94186, 1.48585, 1.00352
AMI: Patch target sum(weights) min/max/average = 0.925004, 1.44017, 1.00342
Execution time for mesh.update() = 1.68 s
GAMG:  Solving for pcorr, Initial residual = 1, Final residual = 0.0852433, No Iterations 4
time step continuity errors : sum local = 3.01237e-09, global = -4.76434e-11, cumulative = -2.11493e-07
MULES: Solving for alpha.water
Phase-1 volume fraction = 0.290108  Min(alpha.water) = -8.63108e-06  Max(alpha.water) = 1.00072
MULES: Solving for alpha.water
Phase-1 volume fraction = 0.290108  Min(alpha.water) = -8.61821e-06  Max(alpha.water) = 1.00071
smoothSolver:  Solving for Ux, Initial residual = 0.00187509, Final residual = 4.28525e-08, No Iterations 2
smoothSolver:  Solving for Uy, Initial residual = 0.00187943, Final residual = 4.53715e-08, No Iterations 2
smoothSolver:  Solving for Uz, Initial residual = 0.00124884, Final residual = 2.81091e-08, No Iterations 2
GAMG:  Solving for p_rgh, Initial residual = 0.00342855, Final residual = 4.55237e-05, No Iterations 2
time step continuity errors : sum local = 6.82984e-09, global = 5.51016e-11, cumulative = -2.11438e-07
PIMPLE: iteration 2
MULES: Solving for alpha.water
Phase-1 volume fraction = 0.290108  Min(alpha.water) = -8.6313e-06  Max(alpha.water) = 1.00072
MULES: Solving for alpha.water
Phase-1 volume fraction = 0.290108  Min(alpha.water) = -8.61861e-06  Max(alpha.water) = 1.00071
smoothSolver:  Solving for Ux, Initial residual = 1.5398e-05, Final residual = 4.4595e-08, No Iterations 1
smoothSolver:  Solving for Uy, Initial residual = 1.65021e-05, Final residual = 4.89934e-08, No Iterations 1
smoothSolver:  Solving for Uz, Initial residual = 1.16176e-05, Final residual = 3.59496e-08, No Iterations 1
GAMG:  Solving for p_rgh, Initial residual = 0.000340996, Final residual = 9.64283e-07, No Iterations 5
time step continuity errors : sum local = 1.44479e-10, global = 1.22948e-11, cumulative = -2.11426e-07
smoothSolver:  Solving for epsilon, Initial residual = 0.00340887, Final residual = 3.18153e-07, No Iterations 2
smoothSolver:  Solving for k, Initial residual = 0.00725464, Final residual = 8.19013e-07, No Iterations 2
ExecutionTime = 199.21 s  ClockTime = 650 s

Courant Number mean: 0.0118948 max: 1.50147
Interface Courant Number mean: 0.00011073 max: 0.0713853
deltaT = 0.000173512
Time = 0.005046133211

PIMPLE: iteration 1
AMI: Creating addressing and weights between 41828 source faces and 41828 target faces
AMI: Patch source sum(weights) min/max/average = 0.932445, 1.46824, 1.00359
AMI: Patch target sum(weights) min/max/average = 0.92568, 1.43464, 1.0035
Execution time for mesh.update() = 1.58 s
GAMG:  Solving for pcorr, Initial residual = 1, Final residual = 0.085176, No Iterations 4
time step continuity errors : sum local = 2.97749e-09, global = -4.49709e-11, cumulative = -2.11471e-07
MULES: Solving for alpha.water
Phase-1 volume fraction = 0.290108  Min(alpha.water) = -8.60606e-06  Max(alpha.water) = 1.0007
MULES: Solving for alpha.water
Phase-1 volume fraction = 0.290108  Min(alpha.water) = -8.59354e-06  Max(alpha.water) = 1.00069
smoothSolver:  Solving for Ux, Initial residual = 0.00184033, Final residual = 4.13077e-08, No Iterations 2
smoothSolver:  Solving for Uy, Initial residual = 0.00184328, Final residual = 4.36115e-08, No Iterations 2
smoothSolver:  Solving for Uz, Initial residual = 0.00122459, Final residual = 2.69654e-08, No Iterations 2
GAMG:  Solving for p_rgh, Initial residual = 0.00330361, Final residual = 4.36688e-05, No Iterations 2
time step continuity errors : sum local = 6.41036e-09, global = -1.46295e-11, cumulative = -2.11485e-07
PIMPLE: iteration 2
MULES: Solving for alpha.water
Phase-1 volume fraction = 0.290108  Min(alpha.water) = -8.60628e-06  Max(alpha.water) = 1.0007
MULES: Solving for alpha.water
Phase-1 volume fraction = 0.290108  Min(alpha.water) = -8.59392e-06  Max(alpha.water) = 1.00069
smoothSolver:  Solving for Ux, Initial residual = 1.47501e-05, Final residual = 4.22591e-08, No Iterations 1
smoothSolver:  Solving for Uy, Initial residual = 1.58496e-05, Final residual = 4.58921e-08, No Iterations 1
smoothSolver:  Solving for Uz, Initial residual = 1.10991e-05, Final residual = 3.39411e-08, No Iterations 1
GAMG:  Solving for p_rgh, Initial residual = 0.000327937, Final residual = 3.731e-07, No Iterations 7
time step continuity errors : sum local = 5.4706e-11, global = -5.27346e-12, cumulative = -2.11491e-07
smoothSolver:  Solving for epsilon, Initial residual = 0.00330273, Final residual = 2.92899e-07, No Iterations 2
smoothSolver:  Solving for k, Initial residual = 0.00695829, Final residual = 7.43332e-07, No Iterations 2
ExecutionTime = 206.51 s  ClockTime = 674 s

Courant Number mean: 0.0117918 max: 1.49097
Interface Courant Number mean: 0.000109718 max: 0.0703885
deltaT = 0.000173512
Time = 0.005219645096

PIMPLE: iteration 1
AMI: Creating addressing and weights between 41828 source faces and 41828 target faces
AMI: Patch source sum(weights) min/max/average = 0.924606, 1.44437, 1.00359
AMI: Patch target sum(weights) min/max/average = 0.929138, 1.43188, 1.0035
Execution time for mesh.update() = 1.73 s
GAMG:  Solving for pcorr, Initial residual = 1, Final residual = 0.0857015, No Iterations 4
time step continuity errors : sum local = 2.99607e-09, global = -6.05969e-11, cumulative = -2.11551e-07
MULES: Solving for alpha.water
Phase-1 volume fraction = 0.290108  Min(alpha.water) = -8.5816e-06  Max(alpha.water) = 1.00068
MULES: Solving for alpha.water
Phase-1 volume fraction = 0.290108  Min(alpha.water) = -8.56929e-06  Max(alpha.water) = 1.00067
smoothSolver:  Solving for Ux, Initial residual = 0.00182491, Final residual = 4.09509e-08, No Iterations 2
smoothSolver:  Solving for Uy, Initial residual = 0.00182714, Final residual = 4.31147e-08, No Iterations 2
smoothSolver:  Solving for Uz, Initial residual = 0.00121384, Final residual = 2.66981e-08, No Iterations 2
GAMG:  Solving for p_rgh, Initial residual = 0.00336348, Final residual = 4.42981e-05, No Iterations 2
time step continuity errors : sum local = 6.47125e-09, global = -1.89313e-10, cumulative = -2.11741e-07
PIMPLE: iteration 2
MULES: Solving for alpha.water
Phase-1 volume fraction = 0.290108  Min(alpha.water) = -8.58181e-06  Max(alpha.water) = 1.00068
MULES: Solving for alpha.water
Phase-1 volume fraction = 0.290108  Min(alpha.water) = -8.56967e-06  Max(alpha.water) = 1.00066
smoothSolver:  Solving for Ux, Initial residual = 1.42195e-05, Final residual = 4.13573e-08, No Iterations 1
smoothSolver:  Solving for Uy, Initial residual = 1.55293e-05, Final residual = 4.5389e-08, No Iterations 1
smoothSolver:  Solving for Uz, Initial residual = 1.08612e-05, Final residual = 3.30379e-08, No Iterations 1
GAMG:  Solving for p_rgh, Initial residual = 0.000321108, Final residual = 7.41519e-07, No Iterations 8
time step continuity errors : sum local = 1.08187e-10, global = -7.52459e-12, cumulative = -2.11748e-07
smoothSolver:  Solving for epsilon, Initial residual = 0.00322828, Final residual = 2.80122e-07, No Iterations 2
smoothSolver:  Solving for k, Initial residual = 0.00673657, Final residual = 7.01555e-07, No Iterations 2
ExecutionTime = 213.67 s  ClockTime = 697 s

Courant Number mean: 0.0117914 max: 1.49302
Interface Courant Number mean: 0.000109693 max: 0.0700296
deltaT = 0.000173512
Time = 0.005393156981

PIMPLE: iteration 1
AMI: Creating addressing and weights between 41828 source faces and 41828 target faces
AMI: Patch source sum(weights) min/max/average = 0.929583, 1.44227, 1.00358
AMI: Patch target sum(weights) min/max/average = 0.932432, 1.42142, 1.00349
Execution time for mesh.update() = 1.74 s
GAMG:  Solving for pcorr, Initial residual = 1, Final residual = 0.0849566, No Iterations 4
time step continuity errors : sum local = 2.98129e-09, global = -3.05149e-11, cumulative = -2.11779e-07
MULES: Solving for alpha.water
Phase-1 volume fraction = 0.290108  Min(alpha.water) = -8.55756e-06  Max(alpha.water) = 1.00065
MULES: Solving for alpha.water
Phase-1 volume fraction = 0.290108  Min(alpha.water) = -8.54548e-06  Max(alpha.water) = 1.00064
smoothSolver:  Solving for Ux, Initial residual = 0.00180789, Final residual = 4.04807e-08, No Iterations 2
smoothSolver:  Solving for Uy, Initial residual = 0.00180971, Final residual = 4.25755e-08, No Iterations 2
smoothSolver:  Solving for Uz, Initial residual = 0.00120564, Final residual = 2.65055e-08, No Iterations 2
GAMG:  Solving for p_rgh, Initial residual = 0.00334318, Final residual = 4.59244e-05, No Iterations 2
time step continuity errors : sum local = 6.67713e-09, global = -1.11485e-10, cumulative = -2.1189e-07
PIMPLE: iteration 2
MULES: Solving for alpha.water
Phase-1 volume fraction = 0.290108  Min(alpha.water) = -8.55777e-06  Max(alpha.water) = 1.00065
MULES: Solving for alpha.water
Phase-1 volume fraction = 0.290108  Min(alpha.water) = -8.54584e-06  Max(alpha.water) = 1.00064
smoothSolver:  Solving for Ux, Initial residual = 1.39539e-05, Final residual = 4.04779e-08, No Iterations 1
smoothSolver:  Solving for Uy, Initial residual = 1.51241e-05, Final residual = 4.46298e-08, No Iterations 1
smoothSolver:  Solving for Uz, Initial residual = 1.0692e-05, Final residual = 3.29981e-08, No Iterations 1
GAMG:  Solving for p_rgh, Initial residual = 0.000314653, Final residual = 3.99341e-07, No Iterations 8
time step continuity errors : sum local = 5.79883e-11, global = -4.78237e-12, cumulative = -2.11895e-07
smoothSolver:  Solving for epsilon, Initial residual = 0.00315093, Final residual = 2.68238e-07, No Iterations 2
smoothSolver:  Solving for k, Initial residual = 0.00652515, Final residual = 6.63932e-07, No Iterations 2
ExecutionTime = 220.66 s  ClockTime = 720 s

Courant Number mean: 0.011791 max: 1.49476
Interface Courant Number mean: 0.000109642 max: 0.0697059
deltaT = 0.000173512
Time = 0.005566668866

PIMPLE: iteration 1
AMI: Creating addressing and weights between 41828 source faces and 41828 target faces
AMI: Patch source sum(weights) min/max/average = 0.934935, 1.40125, 1.0036
AMI: Patch target sum(weights) min/max/average = 0.916707, 1.39698, 1.00351
Execution time for mesh.update() = 1.57 s
GAMG:  Solving for pcorr, Initial residual = 1, Final residual = 0.084976, No Iterations 4
time step continuity errors : sum local = 2.98715e-09, global = -2.69048e-11, cumulative = -2.11922e-07
MULES: Solving for alpha.water
Phase-1 volume fraction = 0.290108  Min(alpha.water) = -8.53395e-06  Max(alpha.water) = 1.00063
MULES: Solving for alpha.water
Phase-1 volume fraction = 0.290108  Min(alpha.water) = -8.52208e-06  Max(alpha.water) = 1.00062
smoothSolver:  Solving for Ux, Initial residual = 0.00179045, Final residual = 3.9971e-08, No Iterations 2
smoothSolver:  Solving for Uy, Initial residual = 0.00179189, Final residual = 4.20241e-08, No Iterations 2
smoothSolver:  Solving for Uz, Initial residual = 0.00119911, Final residual = 2.63404e-08, No Iterations 2
GAMG:  Solving for p_rgh, Initial residual = 0.00332185, Final residual = 4.41695e-05, No Iterations 2
time step continuity errors : sum local = 6.39128e-09, global = 1.05501e-10, cumulative = -2.11816e-07
PIMPLE: iteration 2
MULES: Solving for alpha.water
Phase-1 volume fraction = 0.290108  Min(alpha.water) = -8.53415e-06  Max(alpha.water) = 1.00063
MULES: Solving for alpha.water
Phase-1 volume fraction = 0.290108  Min(alpha.water) = -8.52243e-06  Max(alpha.water) = 1.00062
smoothSolver:  Solving for Ux, Initial residual = 1.34836e-05, Final residual = 3.89241e-08, No Iterations 1
smoothSolver:  Solving for Uy, Initial residual = 1.45367e-05, Final residual = 4.2035e-08, No Iterations 1
smoothSolver:  Solving for Uz, Initial residual = 1.04979e-05, Final residual = 3.27383e-08, No Iterations 1
GAMG:  Solving for p_rgh, Initial residual = 0.000304357, Final residual = 4.18649e-07, No Iterations 8
time step continuity errors : sum local = 6.05012e-11, global = 6.61365e-12, cumulative = -2.1181e-07
smoothSolver:  Solving for epsilon, Initial residual = 0.0030705, Final residual = 2.57661e-07, No Iterations 2
smoothSolver:  Solving for k, Initial residual = 0.00632455, Final residual = 6.30186e-07, No Iterations 2
ExecutionTime = 227.57 s  ClockTime = 743 s

Courant Number mean: 0.0117907 max: 1.49614
Interface Courant Number mean: 0.000109567 max: 0.0694109
deltaT = 0.000173512
Time = 0.005740180751

PIMPLE: iteration 1
AMI: Creating addressing and weights between 41828 source faces and 41828 target faces
[...]
ExecutionTime = 945.95 s  ClockTime = 3088 s

Courant Number mean: 0.0116457 max: 1.49632
Interface Courant Number mean: 0.000129165 max: 0.0687642
deltaT = 0.000171905
Time = 0.02379666294

PIMPLE: iteration 1
AMI: Creating addressing and weights between 41828 source faces and 41828 target faces
AMI: Patch source sum(weights) min/max/average = 0.86204, 1.39431, 1.00424
AMI: Patch target sum(weights) min/max/average = 0.859937, 1.44168, 1.00415
Execution time for mesh.update() = 1.47 s
GAMG:  Solving for pcorr, Initial residual = 1, Final residual = 0.0890233, No Iterations 4
time step continuity errors : sum local = 3.96664e-09, global = -9.27833e-12, cumulative = -2.142e-07
MULES: Solving for alpha.water
Phase-1 volume fraction = 0.290108  Min(alpha.water) = -3.18977e-06  Max(alpha.water) = 1.00012
MULES: Solving for alpha.water
Phase-1 volume fraction = 0.290108  Min(alpha.water) = -3.18773e-06  Max(alpha.water) = 1.00012
smoothSolver:  Solving for Ux, Initial residual = 0.00102946, Final residual = 1.88509e-08, No Iterations 2
smoothSolver:  Solving for Uy, Initial residual = 0.00103628, Final residual = 1.87315e-08, No Iterations 2
smoothSolver:  Solving for Uz, Initial residual = 0.000734656, Final residual = 1.51105e-08, No Iterations 2
GAMG:  Solving for p_rgh, Initial residual = 0.00348033, Final residual = 4.52459e-05, No Iterations 2
time step continuity errors : sum local = 4.40144e-09, global = -1.33323e-10, cumulative = -2.14334e-07
PIMPLE: iteration 2
MULES: Solving for alpha.water
Phase-1 volume fraction = 0.290108  Min(alpha.water) = -3.18979e-06  Max(alpha.water) = 1.00012
MULES: Solving for alpha.water
Phase-1 volume fraction = 0.290108  Min(alpha.water) = -3.18776e-06  Max(alpha.water) = 1.00012
smoothSolver:  Solving for Ux, Initial residual = 4.11717e-06, Final residual = 8.68042e-09, No Iterations 1
smoothSolver:  Solving for Uy, Initial residual = 5.03211e-06, Final residual = 1.03597e-08, No Iterations 1
smoothSolver:  Solving for Uz, Initial residual = 3.79475e-06, Final residual = 8.15949e-09, No Iterations 1
GAMG:  Solving for p_rgh, Initial residual = 0.000208069, Final residual = 6.55416e-07, No Iterations 7
time step continuity errors : sum local = 6.37151e-11, global = -7.7662e-12, cumulative = -2.14341e-07
smoothSolver:  Solving for epsilon, Initial residual = 0.000772725, Final residual = 3.95221e-08, No Iterations 2
smoothSolver:  Solving for k, Initial residual = 0.00146579, Final residual = 6.6986e-08, No Iterations 2
ExecutionTime = 952.09 s  ClockTime = 3107 s

Courant Number mean: 0.0116455 max: 1.4964
Interface Courant Number mean: 0.000129426 max: 0.0687382
deltaT = 0.000171905
Time = 0.02396856824

PIMPLE: iteration 1
AMI: Creating addressing and weights between 41828 source faces and 41828 target faces
AMI: Patch source sum(weights) min/max/average = 0.861281, 1.46071, 1.00425
AMI: Patch target sum(weights) min/max/average = 0.859166, 1.43761, 1.00416
Execution time for mesh.update() = 1.49 s
GAMG:  Solving for pcorr, Initial residual = 1, Final residual = 0.0888971, No Iterations 4
time step continuity errors : sum local = 3.96914e-09, global = -1.30461e-11, cumulative = -2.14354e-07
MULES: Solving for alpha.water
Phase-1 volume fraction = 0.290108  Min(alpha.water) = -3.18574e-06  Max(alpha.water) = 1.00012
MULES: Solving for alpha.water
Phase-1 volume fraction = 0.290108  Min(alpha.water) = -3.18372e-06  Max(alpha.water) = 1.00012
smoothSolver:  Solving for Ux, Initial residual = 0.00102669, Final residual = 1.8799e-08, No Iterations 2
smoothSolver:  Solving for Uy, Initial residual = 0.00103331, Final residual = 1.87118e-08, No Iterations 2
smoothSolver:  Solving for Uz, Initial residual = 0.00073264, Final residual = 1.51179e-08, No Iterations 2
GAMG:  Solving for p_rgh, Initial residual = 0.00349582, Final residual = 4.7986e-05, No Iterations 2
time step continuity errors : sum local = 4.65639e-09, global = -4.88164e-11, cumulative = -2.14403e-07
PIMPLE: iteration 2
MULES: Solving for alpha.water
Phase-1 volume fraction = 0.290108  Min(alpha.water) = -3.18576e-06  Max(alpha.water) = 1.00012
MULES: Solving for alpha.water
Phase-1 volume fraction = 0.290108  Min(alpha.water) = -3.18375e-06  Max(alpha.water) = 1.00012
smoothSolver:  Solving for Ux, Initial residual = 4.19942e-06, Final residual = 8.98173e-09, No Iterations 1
smoothSolver:  Solving for Uy, Initial residual = 5.07401e-06, Final residual = 1.04962e-08, No Iterations 1
smoothSolver:  Solving for Uz, Initial residual = 3.78494e-06, Final residual = 8.07889e-09, No Iterations 1
GAMG:  Solving for p_rgh, Initial residual = 0.00021069, Final residual = 7.65101e-07, No Iterations 8
time step continuity errors : sum local = 7.41908e-11, global = 2.69723e-12, cumulative = -2.14401e-07
smoothSolver:  Solving for epsilon, Initial residual = 0.000764431, Final residual = 3.89457e-08, No Iterations 2
smoothSolver:  Solving for k, Initial residual = 0.00145311, Final residual = 6.60865e-08, No Iterations 2
ExecutionTime = 958.45 s  ClockTime = 3128 s

Courant Number mean: 0.0116452 max: 1.49649
Interface Courant Number mean: 0.000129517 max: 0.0687092
deltaT = 0.000171905
Time = 0.02414047353

PIMPLE: iteration 1
AMI: Creating addressing and weights between 41828 source faces and 41828 target faces
AMI: Patch source sum(weights) min/max/average = 0.860527, 1.47102, 1.00424
AMI: Patch target sum(weights) min/max/average = 0.858399, 1.44909, 1.00415
Execution time for mesh.update() = 1.46 s
GAMG:  Solving for pcorr, Initial residual = 1, Final residual = 0.0871112, No Iterations 4
time step continuity errors : sum local = 3.89853e-09, global = 1.24504e-10, cumulative = -2.14276e-07
MULES: Solving for alpha.water
Phase-1 volume fraction = 0.290108  Min(alpha.water) = -3.18174e-06  Max(alpha.water) = 1.00012
MULES: Solving for alpha.water
Phase-1 volume fraction = 0.290108  Min(alpha.water) = -3.17974e-06  Max(alpha.water) = 1.00012
smoothSolver:  Solving for Ux, Initial residual = 0.00102313, Final residual = 1.8721e-08, No Iterations 2
smoothSolver:  Solving for Uy, Initial residual = 0.00102986, Final residual = 1.86452e-08, No Iterations 2
smoothSolver:  Solving for Uz, Initial residual = 0.000730028, Final residual = 1.509e-08, No Iterations 2
GAMG:  Solving for p_rgh, Initial residual = 0.00349749, Final residual = 4.6656e-05, No Iterations 2
time step continuity errors : sum local = 4.51586e-09, global = -1.13848e-10, cumulative = -2.1439e-07
PIMPLE: iteration 2
MULES: Solving for alpha.water
Phase-1 volume fraction = 0.290108  Min(alpha.water) = -3.18176e-06  Max(alpha.water) = 1.00012
MULES: Solving for alpha.water
Phase-1 volume fraction = 0.290108  Min(alpha.water) = -3.17977e-06  Max(alpha.water) = 1.00012
smoothSolver:  Solving for Ux, Initial residual = 4.19382e-06, Final residual = 9.02776e-09, No Iterations 1
smoothSolver:  Solving for Uy, Initial residual = 5.03838e-06, Final residual = 1.03642e-08, No Iterations 1
smoothSolver:  Solving for Uz, Initial residual = 3.76139e-06, Final residual = 8.03611e-09, No Iterations 1
GAMG:  Solving for p_rgh, Initial residual = 0.000208143, Final residual = 5.67848e-07, No Iterations 8
time step continuity errors : sum local = 5.49259e-11, global = -4.81186e-12, cumulative = -2.14395e-07
smoothSolver:  Solving for epsilon, Initial residual = 0.000756187, Final residual = 3.83338e-08, No Iterations 2
smoothSolver:  Solving for k, Initial residual = 0.00144056, Final residual = 6.51955e-08, No Iterations 2
ExecutionTime = 964.91 s  ClockTime = 3149 s

Courant Number mean: 0.011645 max: 1.4966
Interface Courant Number mean: 0.000129627 max: 0.0686862
deltaT = 0.000171905
Time = 0.02431237883

PIMPLE: iteration 1
AMI: Creating addressing and weights between 41828 source faces and 41828 target faces
AMI: Patch source sum(weights) min/max/average = 0.859776, 1.45225, 1.00422
AMI: Patch target sum(weights) min/max/average = 0.857637, 1.46604, 1.00413
Execution time for mesh.update() = 1.52 s
GAMG:  Solving for pcorr, Initial residual = 1, Final residual = 0.0888906, No Iterations 4
time step continuity errors : sum local = 3.98528e-09, global = -1.31068e-11, cumulative = -2.14408e-07
MULES: Solving for alpha.water
Phase-1 volume fraction = 0.290108  Min(alpha.water) = -3.17778e-06  Max(alpha.water) = 1.00012
MULES: Solving for alpha.water
Phase-1 volume fraction = 0.290108  Min(alpha.water) = -3.17579e-06  Max(alpha.water) = 1.00012
smoothSolver:  Solving for Ux, Initial residual = 0.00101976, Final residual = 1.86867e-08, No Iterations 2
smoothSolver:  Solving for Uy, Initial residual = 0.00102698, Final residual = 1.86361e-08, No Iterations 2
smoothSolver:  Solving for Uz, Initial residual = 0.000731527, Final residual = 1.51632e-08, No Iterations 2
GAMG:  Solving for p_rgh, Initial residual = 0.00349842, Final residual = 4.51833e-05, No Iterations 2
time step continuity errors : sum local = 4.36306e-09, global = -9.12204e-11, cumulative = -2.14499e-07
PIMPLE: iteration 2
MULES: Solving for alpha.water
Phase-1 volume fraction = 0.290108  Min(alpha.water) = -3.17779e-06  Max(alpha.water) = 1.00012
MULES: Solving for alpha.water
Phase-1 volume fraction = 0.290108  Min(alpha.water) = -3.17582e-06  Max(alpha.water) = 1.00013
smoothSolver:  Solving for Ux, Initial residual = 4.08989e-06, Final residual = 8.58557e-09, No Iterations 1
smoothSolver:  Solving for Uy, Initial residual = 4.94019e-06, Final residual = 1.00363e-08, No Iterations 1
smoothSolver:  Solving for Uz, Initial residual = 3.69575e-06, Final residual = 7.87566e-09, No Iterations 1
GAMG:  Solving for p_rgh, Initial residual = 0.000204387, Final residual = 9.65464e-07, No Iterations 5
time step continuity errors : sum local = 9.31658e-11, global = -6.68595e-12, cumulative = -2.14506e-07
smoothSolver:  Solving for epsilon, Initial residual = 0.000748072, Final residual = 3.77824e-08, No Iterations 2
smoothSolver:  Solving for k, Initial residual = 0.00142817, Final residual = 6.43584e-08, No Iterations 2
ExecutionTime = 971.12 s  ClockTime = 3170 s

Courant Number mean: 0.0116448 max: 1.49674
Interface Courant Number mean: 0.000129826 max: 0.0686749
deltaT = 0.000171905
Time = 0.02448428412

PIMPLE: iteration 1
AMI: Creating addressing and weights between 41828 source faces and 41828 target faces
AMI: Patch source sum(weights) min/max/average = 0.85903, 1.43338, 1.00421
AMI: Patch target sum(weights) min/max/average = 0.85688, 1.45965, 1.00412
Execution time for mesh.update() = 1.46 s
GAMG:  Solving for pcorr, Initial residual = 1, Final residual = 0.0881315, No Iterations 4
time step continuity errors : sum local = 3.96271e-09, global = -1.21144e-11, cumulative = -2.14518e-07
MULES: Solving for alpha.water
Phase-1 volume fraction = 0.290108  Min(alpha.water) = -3.17384e-06  Max(alpha.water) = 1.00012
MULES: Solving for alpha.water
Phase-1 volume fraction = 0.290108  Min(alpha.water) = -3.17187e-06  Max(alpha.water) = 1.00012
smoothSolver:  Solving for Ux, Initial residual = 0.00101691, Final residual = 1.86617e-08, No Iterations 2
smoothSolver:  Solving for Uy, Initial residual = 0.00102429, Final residual = 1.86229e-08, No Iterations 2
smoothSolver:  Solving for Uz, Initial residual = 0.000730793, Final residual = 1.52017e-08, No Iterations 2
GAMG:  Solving for p_rgh, Initial residual = 0.0034885, Final residual = 4.55543e-05, No Iterations 2
time step continuity errors : sum local = 4.38832e-09, global = -4.81012e-11, cumulative = -2.14566e-07
PIMPLE: iteration 2
MULES: Solving for alpha.water
Phase-1 volume fraction = 0.290108  Min(alpha.water) = -3.17386e-06  Max(alpha.water) = 1.00013
MULES: Solving for alpha.water
Phase-1 volume fraction = 0.290108  Min(alpha.water) = -3.1719e-06  Max(alpha.water) = 1.00013
smoothSolver:  Solving for Ux, Initial residual = 4.01471e-06, Final residual = 8.34797e-09, No Iterations 1
smoothSolver:  Solving for Uy, Initial residual = 4.85543e-06, Final residual = 9.72451e-09, No Iterations 1
smoothSolver:  Solving for Uz, Initial residual = 3.67407e-06, Final residual = 7.89906e-09, No Iterations 1
GAMG:  Solving for p_rgh, Initial residual = 0.000201866, Final residual = 3.66466e-07, No Iterations 6
time step continuity errors : sum local = 3.52792e-11, global = -2.30726e-12, cumulative = -2.14568e-07
smoothSolver:  Solving for epsilon, Initial residual = 0.000740144, Final residual = 3.71953e-08, No Iterations 2
smoothSolver:  Solving for k, Initial residual = 0.00141604, Final residual = 6.35444e-08, No Iterations 2
ExecutionTime = 977.69 s  ClockTime = 3191 s

Courant Number mean: 0.0116446 max: 1.49688
Interface Courant Number mean: 0.000129999 max: 0.0686728
deltaT = 0.000171905
Time = 0.02465618941

PIMPLE: iteration 1
AMI: Creating addressing and weights between 41828 source faces and 41828 target faces
AMI: Patch source sum(weights) min/max/average = 0.858289, 1.41453, 1.00418
AMI: Patch target sum(weights) min/max/average = 0.856126, 1.44788, 1.00409
Execution time for mesh.update() = 1.53 s
GAMG:  Solving for pcorr, Initial residual = 1, Final residual = 0.0889723, No Iterations 4
time step continuity errors : sum local = 4.00465e-09, global = -1.02952e-11, cumulative = -2.14579e-07
MULES: Solving for alpha.water
Phase-1 volume fraction = 0.290108  Min(alpha.water) = -3.16994e-06  Max(alpha.water) = 1.00013
MULES: Solving for alpha.water
Phase-1 volume fraction = 0.290108  Min(alpha.water) = -3.16798e-06  Max(alpha.water) = 1.00012
smoothSolver:  Solving for Ux, Initial residual = 0.00101461, Final residual = 1.86423e-08, No Iterations 2
smoothSolver:  Solving for Uy, Initial residual = 0.001022, Final residual = 1.86104e-08, No Iterations 2
smoothSolver:  Solving for Uz, Initial residual = 0.000730353, Final residual = 1.52362e-08, No Iterations 2
GAMG:  Solving for p_rgh, Initial residual = 0.00349319, Final residual = 4.58234e-05, No Iterations 2
time step continuity errors : sum local = 4.40343e-09, global = 5.41442e-11, cumulative = -2.14524e-07
PIMPLE: iteration 2
MULES: Solving for alpha.water
Phase-1 volume fraction = 0.290108  Min(alpha.water) = -2.57392e-06  Max(alpha.water) = 1.00013
MULES: Solving for alpha.water
Phase-1 volume fraction = 0.290108  Min(alpha.water) = -2.57215e-06  Max(alpha.water) = 1.00013
smoothSolver:  Solving for Ux, Initial residual = 4.01855e-06, Final residual = 8.41071e-09, No Iterations 1
smoothSolver:  Solving for Uy, Initial residual = 4.85371e-06, Final residual = 9.8494e-09, No Iterations 1
smoothSolver:  Solving for Uz, Initial residual = 3.67572e-06, Final residual = 7.85824e-09, No Iterations 1
GAMG:  Solving for p_rgh, Initial residual = 0.000201682, Final residual = 4.14147e-07, No Iterations 7
time step continuity errors : sum local = 3.97714e-11, global = 3.97502e-12, cumulative = -2.1452e-07
smoothSolver:  Solving for epsilon, Initial residual = 0.000732364, Final residual = 3.66557e-08, No Iterations 2
smoothSolver:  Solving for k, Initial residual = 0.00140406, Final residual = 6.27525e-08, No Iterations 2
ExecutionTime = 985.16 s  ClockTime = 3215 s

Courant Number mean: 0.0116444 max: 1.49703
Interface Courant Number mean: 0.000130131 max: 0.0686882
deltaT = 0.000171905
Time = 0.02482809471

PIMPLE: iteration 1
AMI: Creating addressing and weights between 41828 source faces and 41828 target faces
AMI: Patch source sum(weights) min/max/average = 0.857551, 1.39835, 1.00417
AMI: Patch target sum(weights) min/max/average = 0.855378, 1.43184, 1.00408
Execution time for mesh.update() = 1.53 s
GAMG:  Solving for pcorr, Initial residual = 1, Final residual = 0.0875928, No Iterations 4
time step continuity errors : sum local = 3.95117e-09, global = 6.53366e-11, cumulative = -2.14455e-07
MULES: Solving for alpha.water
Phase-1 volume fraction = 0.290108  Min(alpha.water) = -2.57037e-06  Max(alpha.water) = 1.00013
MULES: Solving for alpha.water
Phase-1 volume fraction = 0.290108  Min(alpha.water) = -2.56857e-06  Max(alpha.water) = 1.00012
smoothSolver:  Solving for Ux, Initial residual = 0.00101184, Final residual = 1.86206e-08, No Iterations 2
smoothSolver:  Solving for Uy, Initial residual = 0.00101929, Final residual = 1.85745e-08, No Iterations 2
smoothSolver:  Solving for Uz, Initial residual = 0.000728093, Final residual = 1.52059e-08, No Iterations 2
GAMG:  Solving for p_rgh, Initial residual = 0.00350374, Final residual = 4.61494e-05, No Iterations 2
time step continuity errors : sum local = 4.42326e-09, global = 7.049e-11, cumulative = -2.14385e-07
PIMPLE: iteration 2
MULES: Solving for alpha.water
Phase-1 volume fraction = 0.290108  Min(alpha.water) = -2.57033e-06  Max(alpha.water) = 1.00013
MULES: Solving for alpha.water
Phase-1 volume fraction = 0.290108  Min(alpha.water) = -2.56852e-06  Max(alpha.water) = 1.00013
smoothSolver:  Solving for Ux, Initial residual = 3.9927e-06, Final residual = 8.44865e-09, No Iterations 1
smoothSolver:  Solving for Uy, Initial residual = 4.86924e-06, Final residual = 9.92381e-09, No Iterations 1
smoothSolver:  Solving for Uz, Initial residual = 3.65475e-06, Final residual = 7.83567e-09, No Iterations 1
GAMG:  Solving for p_rgh, Initial residual = 0.000202455, Final residual = 9.58422e-07, No Iterations 7
time step continuity errors : sum local = 9.1803e-11, global = -2.31915e-12, cumulative = -2.14387e-07
smoothSolver:  Solving for epsilon, Initial residual = 0.000724681, Final residual = 3.60782e-08, No Iterations 2
smoothSolver:  Solving for k, Initial residual = 0.00139216, Final residual = 6.19635e-08, No Iterations 2
ExecutionTime = 991.98 s  ClockTime = 3237 s

Courant Number mean: 0.0116442 max: 1.49717
Interface Courant Number mean: 0.000130305 max: 0.0687198
deltaT = 0.000171905
Time = 0.025

PIMPLE: iteration 1
AMI: Creating addressing and weights between 41828 source faces and 41828 target faces
AMI: Patch source sum(weights) min/max/average = 0.856818, 1.38909, 1.00418
AMI: Patch target sum(weights) min/max/average = 0.854633, 1.41329, 1.0041
Execution time for mesh.update() = 1.48 s
GAMG:  Solving for pcorr, Initial residual = 1, Final residual = 0.0871981, No Iterations 4
time step continuity errors : sum local = 3.94506e-09, global = 7.09182e-11, cumulative = -2.14316e-07
MULES: Solving for alpha.water
Phase-1 volume fraction = 0.290108  Min(alpha.water) = -2.56671e-06  Max(alpha.water) = 1.00013
MULES: Solving for alpha.water
Phase-1 volume fraction = 0.290108  Min(alpha.water) = -2.56487e-06  Max(alpha.water) = 1.00012
smoothSolver:  Solving for Ux, Initial residual = 0.00100919, Final residual = 1.85997e-08, No Iterations 2
smoothSolver:  Solving for Uy, Initial residual = 0.00101663, Final residual = 1.85471e-08, No Iterations 2
smoothSolver:  Solving for Uz, Initial residual = 0.000726049, Final residual = 1.51672e-08, No Iterations 2
GAMG:  Solving for p_rgh, Initial residual = 0.00351564, Final residual = 4.62342e-05, No Iterations 2
time step continuity errors : sum local = 4.41987e-09, global = 5.15821e-11, cumulative = -2.14264e-07
PIMPLE: iteration 2
MULES: Solving for alpha.water
Phase-1 volume fraction = 0.290108  Min(alpha.water) = -2.56663e-06  Max(alpha.water) = 1.00013
MULES: Solving for alpha.water
Phase-1 volume fraction = 0.290108  Min(alpha.water) = -2.56475e-06  Max(alpha.water) = 1.00013
smoothSolver:  Solving for Ux, Initial residual = 3.96618e-06, Final residual = 8.48627e-09, No Iterations 1
smoothSolver:  Solving for Uy, Initial residual = 4.82658e-06, Final residual = 1.00884e-08, No Iterations 1
smoothSolver:  Solving for Uz, Initial residual = 3.64246e-06, Final residual = 7.74336e-09, No Iterations 1
GAMG:  Solving for p_rgh, Initial residual = 0.000202232, Final residual = 5.34975e-07, No Iterations 5
time step continuity errors : sum local = 5.11091e-11, global = 5.03824e-12, cumulative = -2.14259e-07
smoothSolver:  Solving for epsilon, Initial residual = 0.000717069, Final residual = 3.55435e-08, No Iterations 2
smoothSolver:  Solving for k, Initial residual = 0.00138035, Final residual = 6.11998e-08, No Iterations 2
