Env_base: K-1.2.0-20-1
interFoam
Running ./makeMesh on /work/job-write0.05s.5459488/mixerVessel2D
Running setFields on /work/job-write0.05s.5459488/mixerVessel2D
Running ./checkMesh on /work/job-write0.05s.5459488/mixerVessel2D
Running interFoam on /work/job-write0.05s.5459488/mixerVessel2D
/work/job-write0.05s.5459488/mixerVessel2D/..
total 544
-rw-r--r--  1 a03106 ra000007 2865 May 22  2015 RunFunctions
drwxrwxrwx  2 a03106 ra000007 8192 Oct 29 15:40 bin
drwxrwxrwx  2 a03106 ra000007 4096 Oct 29 15:39 etc
drwxrwxrwx  2 a03106 ra000007 8192 Oct 29 15:39 lib
drwxrwxrwx 69 a03106 ra000007 4096 Oct 29 15:45 mixerVessel2D
/*---------------------------------------------------------------------------*\
| =========                 |                                                 |
| \\      /  F ield         | OpenFOAM: The Open Source CFD Toolbox           |
|  \\    /   O peration     | Version:  2.4.0                                 |
|   \\  /    A nd           | Web:      www.OpenFOAM.org                      |
|    \\/     M anipulation  |                                                 |
\*---------------------------------------------------------------------------*/
Build  : 2.4.0-dcea1e13ff76
Exec   : ../bin/foamToVTK -ascii
Date   : Oct 29 2016
Time   : 15:45:49
Host   : "f04-036"
PID    : 22066
Case   : /work/job-write0.05s.5459488/mixerVessel2D
nProcs : 1
fileModificationChecking : Monitoring run-time modified files using timeStampMaster
allowSystemOperations : Allowing user-supplied system call operations

// * * * * * * * * * * * * * * * * * * * * * * * * * * * * * * * * * * * * * //
Create time

Create mesh for time = 0

Time: 0
    volScalarFields            : p_rgh alpha.water alpha.water.org
    volVectorFields            : U

    Internal  : "/work/job-write0.05s.5459488/mixerVessel2D/VTK/mixerVessel2D_0.vtk"
    Original cells:4608 points:9600   Additional cells:0  additional points:0

    Patch     : "/work/job-write0.05s.5459488/mixerVessel2D/VTK/rotor/rotor_0.vtk"
    Patch     : "/work/job-write0.05s.5459488/mixerVessel2D/VTK/stator/stator_0.vtk"
    Patch     : "/work/job-write0.05s.5459488/mixerVessel2D/VTK/front/front_0.vtk"
    Patch     : "/work/job-write0.05s.5459488/mixerVessel2D/VTK/back/back_0.vtk"
Time: 0.125
    volScalarFields            : p alpha.water p_rgh
    volVectorFields            : U

    Internal  : "/work/job-write0.05s.5459488/mixerVessel2D/VTK/mixerVessel2D_76.vtk"
    Patch     : "/work/job-write0.05s.5459488/mixerVessel2D/VTK/rotor/rotor_76.vtk"
    Patch     : "/work/job-write0.05s.5459488/mixerVessel2D/VTK/stator/stator_76.vtk"
    Patch     : "/work/job-write0.05s.5459488/mixerVessel2D/VTK/front/front_76.vtk"
    Patch     : "/work/job-write0.05s.5459488/mixerVessel2D/VTK/back/back_76.vtk"
    surfScalarFields  : phi phiAlpha
Time: 0.25
    volScalarFields            : p alpha.water p_rgh
    volVectorFields            : U

    Internal  : "/work/job-write0.05s.5459488/mixerVessel2D/VTK/mixerVessel2D_130.vtk"
    Patch     : "/work/job-write0.05s.5459488/mixerVessel2D/VTK/rotor/rotor_130.vtk"
    Patch     : "/work/job-write0.05s.5459488/mixerVessel2D/VTK/stator/stator_130.vtk"
    Patch     : "/work/job-write0.05s.5459488/mixerVessel2D/VTK/front/front_130.vtk"
    Patch     : "/work/job-write0.05s.5459488/mixerVessel2D/VTK/back/back_130.vtk"
    surfScalarFields  : phi phiAlpha
Time: 0.375
    volScalarFields            : p alpha.water p_rgh
    volVectorFields            : U

    Internal  : "/work/job-write0.05s.5459488/mixerVessel2D/VTK/mixerVessel2D_183.vtk"
    Patch     : "/work/job-write0.05s.5459488/mixerVessel2D/VTK/rotor/rotor_183.vtk"
    Patch     : "/work/job-write0.05s.5459488/mixerVessel2D/VTK/stator/stator_183.vtk"
    Patch     : "/work/job-write0.05s.5459488/mixerVessel2D/VTK/front/front_183.vtk"
    Patch     : "/work/job-write0.05s.5459488/mixerVessel2D/VTK/back/back_183.vtk"
    surfScalarFields  : phi phiAlpha
Time: 0.5
    volScalarFields            : p alpha.water p_rgh
    volVectorFields            : U

    Internal  : "/work/job-write0.05s.5459488/mixerVessel2D/VTK/mixerVessel2D_229.vtk"
    Patch     : "/work/job-write0.05s.5459488/mixerVessel2D/VTK/rotor/rotor_229.vtk"
    Patch     : "/work/job-write0.05s.5459488/mixerVessel2D/VTK/stator/stator_229.vtk"
    Patch     : "/work/job-write0.05s.5459488/mixerVessel2D/VTK/front/front_229.vtk"
    Patch     : "/work/job-write0.05s.5459488/mixerVessel2D/VTK/back/back_229.vtk"
    surfScalarFields  : phi phiAlpha
Time: 0.625
    volScalarFields            : p alpha.water p_rgh
    volVectorFields            : U

    Internal  : "/work/job-write0.05s.5459488/mixerVessel2D/VTK/mixerVessel2D_268.vtk"
    Patch     : "/work/job-write0.05s.5459488/mixerVessel2D/VTK/rotor/rotor_268.vtk"
    Patch     : "/work/job-write0.05s.5459488/mixerVessel2D/VTK/stator/stator_268.vtk"
    Patch     : "/work/job-write0.05s.5459488/mixerVessel2D/VTK/front/front_268.vtk"
    Patch     : "/work/job-write0.05s.5459488/mixerVessel2D/VTK/back/back_268.vtk"
    surfScalarFields  : phi phiAlpha
Time: 0.75
    volScalarFields            : p alpha.water p_rgh
    volVectorFields            : U

    Internal  : "/work/job-write0.05s.5459488/mixerVessel2D/VTK/mixerVessel2D_303.vtk"
    Patch     : "/work/job-write0.05s.5459488/mixerVessel2D/VTK/rotor/rotor_303.vtk"
    Patch     : "/work/job-write0.05s.5459488/mixerVessel2D/VTK/stator/stator_303.vtk"
    Patch     : "/work/job-write0.05s.5459488/mixerVessel2D/VTK/front/front_303.vtk"
    Patch     : "/work/job-write0.05s.5459488/mixerVessel2D/VTK/back/back_303.vtk"
    surfScalarFields  : phi phiAlpha
Time: 0.875
    volScalarFields            : p alpha.water p_rgh
    volVectorFields            : U

    Internal  : "/work/job-write0.05s.5459488/mixerVessel2D/VTK/mixerVessel2D_337.vtk"
    Patch     : "/work/job-write0.05s.5459488/mixerVessel2D/VTK/rotor/rotor_337.vtk"
    Patch     : "/work/job-write0.05s.5459488/mixerVessel2D/VTK/stator/stator_337.vtk"
    Patch     : "/work/job-write0.05s.5459488/mixerVessel2D/VTK/front/front_337.vtk"
    Patch     : "/work/job-write0.05s.5459488/mixerVessel2D/VTK/back/back_337.vtk"
    surfScalarFields  : phi phiAlpha
Time: 1
    volScalarFields            : p alpha.water p_rgh
    volVectorFields            : U

    Internal  : "/work/job-write0.05s.5459488/mixerVessel2D/VTK/mixerVessel2D_371.vtk"
    Patch     : "/work/job-write0.05s.5459488/mixerVessel2D/VTK/rotor/rotor_371.vtk"
    Patch     : "/work/job-write0.05s.5459488/mixerVessel2D/VTK/stator/stator_371.vtk"
    Patch     : "/work/job-write0.05s.5459488/mixerVessel2D/VTK/front/front_371.vtk"
    Patch     : "/work/job-write0.05s.5459488/mixerVessel2D/VTK/back/back_371.vtk"
    surfScalarFields  : phi phiAlpha
Time: 1.125
    volScalarFields            : p alpha.water p_rgh
    volVectorFields            : U

    Internal  : "/work/job-write0.05s.5459488/mixerVessel2D/VTK/mixerVessel2D_403.vtk"
    Patch     : "/work/job-write0.05s.5459488/mixerVessel2D/VTK/rotor/rotor_403.vtk"
    Patch     : "/work/job-write0.05s.5459488/mixerVessel2D/VTK/stator/stator_403.vtk"
    Patch     : "/work/job-write0.05s.5459488/mixerVessel2D/VTK/front/front_403.vtk"
    Patch     : "/work/job-write0.05s.5459488/mixerVessel2D/VTK/back/back_403.vtk"
    surfScalarFields  : phi phiAlpha
Time: 1.25
    volScalarFields            : p alpha.water p_rgh
    volVectorFields            : U

    Internal  : "/work/job-write0.05s.5459488/mixerVessel2D/VTK/mixerVessel2D_436.vtk"
    Patch     : "/work/job-write0.05s.5459488/mixerVessel2D/VTK/rotor/rotor_436.vtk"
    Patch     : "/work/job-write0.05s.5459488/mixerVessel2D/VTK/stator/stator_436.vtk"
    Patch     : "/work/job-write0.05s.5459488/mixerVessel2D/VTK/front/front_436.vtk"
    Patch     : "/work/job-write0.05s.5459488/mixerVessel2D/VTK/back/back_436.vtk"
    surfScalarFields  : phi phiAlpha
Time: 1.375
    volScalarFields            : p alpha.water p_rgh
    volVectorFields            : U

    Internal  : "/work/job-write0.05s.5459488/mixerVessel2D/VTK/mixerVessel2D_469.vtk"
    Patch     : "/work/job-write0.05s.5459488/mixerVessel2D/VTK/rotor/rotor_469.vtk"
    Patch     : "/work/job-write0.05s.5459488/mixerVessel2D/VTK/stator/stator_469.vtk"
    Patch     : "/work/job-write0.05s.5459488/mixerVessel2D/VTK/front/front_469.vtk"
    Patch     : "/work/job-write0.05s.5459488/mixerVessel2D/VTK/back/back_469.vtk"
    surfScalarFields  : phi phiAlpha
Time: 1.5
    volScalarFields            : p alpha.water p_rgh
    volVectorFields            : U

    Internal  : "/work/job-write0.05s.5459488/mixerVessel2D/VTK/mixerVessel2D_503.vtk"
    Patch     : "/work/job-write0.05s.5459488/mixerVessel2D/VTK/rotor/rotor_503.vtk"
    Patch     : "/work/job-write0.05s.5459488/mixerVessel2D/VTK/stator/stator_503.vtk"
    Patch     : "/work/job-write0.05s.5459488/mixerVessel2D/VTK/front/front_503.vtk"
    Patch     : "/work/job-write0.05s.5459488/mixerVessel2D/VTK/back/back_503.vtk"
    surfScalarFields  : phi phiAlpha
Time: 1.625
    volScalarFields            : p alpha.water p_rgh
    volVectorFields            : U

    Internal  : "/work/job-write0.05s.5459488/mixerVessel2D/VTK/mixerVessel2D_537.vtk"
    Patch     : "/work/job-write0.05s.5459488/mixerVessel2D/VTK/rotor/rotor_537.vtk"
    Patch     : "/work/job-write0.05s.5459488/mixerVessel2D/VTK/stator/stator_537.vtk"
    Patch     : "/work/job-write0.05s.5459488/mixerVessel2D/VTK/front/front_537.vtk"
    Patch     : "/work/job-write0.05s.5459488/mixerVessel2D/VTK/back/back_537.vtk"
    surfScalarFields  : phi phiAlpha
Time: 1.75
    volScalarFields            : p alpha.water p_rgh
    volVectorFields            : U

    Internal  : "/work/job-write0.05s.5459488/mixerVessel2D/VTK/mixerVessel2D_573.vtk"
    Patch     : "/work/job-write0.05s.5459488/mixerVessel2D/VTK/rotor/rotor_573.vtk"
    Patch     : "/work/job-write0.05s.5459488/mixerVessel2D/VTK/stator/stator_573.vtk"
    Patch     : "/work/job-write0.05s.5459488/mixerVessel2D/VTK/front/front_573.vtk"
    Patch     : "/work/job-write0.05s.5459488/mixerVessel2D/VTK/back/back_573.vtk"
    surfScalarFields  : phi phiAlpha
Time: 1.875
    volScalarFields            : p alpha.water p_rgh
    volVectorFields            : U

    Internal  : "/work/job-write0.05s.5459488/mixerVessel2D/VTK/mixerVessel2D_609.vtk"
    Patch     : "/work/job-write0.05s.5459488/mixerVessel2D/VTK/rotor/rotor_609.vtk"
    Patch     : "/work/job-write0.05s.5459488/mixerVessel2D/VTK/stator/stator_609.vtk"
    Patch     : "/work/job-write0.05s.5459488/mixerVessel2D/VTK/front/front_609.vtk"
    Patch     : "/work/job-write0.05s.5459488/mixerVessel2D/VTK/back/back_609.vtk"
    surfScalarFields  : phi phiAlpha
Time: 2
    volScalarFields            : p alpha.water p_rgh
    volVectorFields            : U

    Internal  : "/work/job-write0.05s.5459488/mixerVessel2D/VTK/mixerVessel2D_642.vtk"
    Patch     : "/work/job-write0.05s.5459488/mixerVessel2D/VTK/rotor/rotor_642.vtk"
    Patch     : "/work/job-write0.05s.5459488/mixerVessel2D/VTK/stator/stator_642.vtk"
    Patch     : "/work/job-write0.05s.5459488/mixerVessel2D/VTK/front/front_642.vtk"
    Patch     : "/work/job-write0.05s.5459488/mixerVessel2D/VTK/back/back_642.vtk"
    surfScalarFields  : phi phiAlpha
Time: 2.125
    volScalarFields            : p alpha.water p_rgh
    volVectorFields            : U

    Internal  : "/work/job-write0.05s.5459488/mixerVessel2D/VTK/mixerVessel2D_675.vtk"
    Patch     : "/work/job-write0.05s.5459488/mixerVessel2D/VTK/rotor/rotor_675.vtk"
    Patch     : "/work/job-write0.05s.5459488/mixerVessel2D/VTK/stator/stator_675.vtk"
    Patch     : "/work/job-write0.05s.5459488/mixerVessel2D/VTK/front/front_675.vtk"
    Patch     : "/work/job-write0.05s.5459488/mixerVessel2D/VTK/back/back_675.vtk"
    surfScalarFields  : phi phiAlpha
Time: 2.25
    volScalarFields            : p alpha.water p_rgh
    volVectorFields            : U

    Internal  : "/work/job-write0.05s.5459488/mixerVessel2D/VTK/mixerVessel2D_707.vtk"
    Patch     : "/work/job-write0.05s.5459488/mixerVessel2D/VTK/rotor/rotor_707.vtk"
    Patch     : "/work/job-write0.05s.5459488/mixerVessel2D/VTK/stator/stator_707.vtk"
    Patch     : "/work/job-write0.05s.5459488/mixerVessel2D/VTK/front/front_707.vtk"
    Patch     : "/work/job-write0.05s.5459488/mixerVessel2D/VTK/back/back_707.vtk"
    surfScalarFields  : phi phiAlpha
Time: 2.375
    volScalarFields            : p alpha.water p_rgh
    volVectorFields            : U

    Internal  : "/work/job-write0.05s.5459488/mixerVessel2D/VTK/mixerVessel2D_738.vtk"
    Patch     : "/work/job-write0.05s.5459488/mixerVessel2D/VTK/rotor/rotor_738.vtk"
    Patch     : "/work/job-write0.05s.5459488/mixerVessel2D/VTK/stator/stator_738.vtk"
    Patch     : "/work/job-write0.05s.5459488/mixerVessel2D/VTK/front/front_738.vtk"
    Patch     : "/work/job-write0.05s.5459488/mixerVessel2D/VTK/back/back_738.vtk"
    surfScalarFields  : phi phiAlpha
Time: 2.5
    volScalarFields            : p alpha.water p_rgh
    volVectorFields            : U

    Internal  : "/work/job-write0.05s.5459488/mixerVessel2D/VTK/mixerVessel2D_771.vtk"
    Patch     : "/work/job-write0.05s.5459488/mixerVessel2D/VTK/rotor/rotor_771.vtk"
    Patch     : "/work/job-write0.05s.5459488/mixerVessel2D/VTK/stator/stator_771.vtk"
    Patch     : "/work/job-write0.05s.5459488/mixerVessel2D/VTK/front/front_771.vtk"
    Patch     : "/work/job-write0.05s.5459488/mixerVessel2D/VTK/back/back_771.vtk"
    surfScalarFields  : phi phiAlpha
Time: 2.625
    volScalarFields            : p alpha.water p_rgh
    volVectorFields            : U

    Internal  : "/work/job-write0.05s.5459488/mixerVessel2D/VTK/mixerVessel2D_805.vtk"
    Patch     : "/work/job-write0.05s.5459488/mixerVessel2D/VTK/rotor/rotor_805.vtk"
    Patch     : "/work/job-write0.05s.5459488/mixerVessel2D/VTK/stator/stator_805.vtk"
    Patch     : "/work/job-write0.05s.5459488/mixerVessel2D/VTK/front/front_805.vtk"
    Patch     : "/work/job-write0.05s.5459488/mixerVessel2D/VTK/back/back_805.vtk"
    surfScalarFields  : phi phiAlpha
Time: 2.75
    volScalarFields            : p alpha.water p_rgh
    volVectorFields            : U

    Internal  : "/work/job-write0.05s.5459488/mixerVessel2D/VTK/mixerVessel2D_839.vtk"
    Patch     : "/work/job-write0.05s.5459488/mixerVessel2D/VTK/rotor/rotor_839.vtk"
    Patch     : "/work/job-write0.05s.5459488/mixerVessel2D/VTK/stator/stator_839.vtk"
    Patch     : "/work/job-write0.05s.5459488/mixerVessel2D/VTK/front/front_839.vtk"
    Patch     : "/work/job-write0.05s.5459488/mixerVessel2D/VTK/back/back_839.vtk"
    surfScalarFields  : phi phiAlpha
Time: 2.875
    volScalarFields            : p alpha.water p_rgh
    volVectorFields            : U

    Internal  : "/work/job-write0.05s.5459488/mixerVessel2D/VTK/mixerVessel2D_872.vtk"
    Patch     : "/work/job-write0.05s.5459488/mixerVessel2D/VTK/rotor/rotor_872.vtk"
    Patch     : "/work/job-write0.05s.5459488/mixerVessel2D/VTK/stator/stator_872.vtk"
    Patch     : "/work/job-write0.05s.5459488/mixerVessel2D/VTK/front/front_872.vtk"
    Patch     : "/work/job-write0.05s.5459488/mixerVessel2D/VTK/back/back_872.vtk"
    surfScalarFields  : phi phiAlpha
Time: 3
    volScalarFields            : p alpha.water p_rgh
    volVectorFields            : U

    Internal  : "/work/job-write0.05s.5459488/mixerVessel2D/VTK/mixerVessel2D_904.vtk"
    Patch     : "/work/job-write0.05s.5459488/mixerVessel2D/VTK/rotor/rotor_904.vtk"
    Patch     : "/work/job-write0.05s.5459488/mixerVessel2D/VTK/stator/stator_904.vtk"
    Patch     : "/work/job-write0.05s.5459488/mixerVessel2D/VTK/front/front_904.vtk"
    Patch     : "/work/job-write0.05s.5459488/mixerVessel2D/VTK/back/back_904.vtk"
    surfScalarFields  : phi phiAlpha
Time: 3.125
    volScalarFields            : p alpha.water p_rgh
    volVectorFields            : U

    Internal  : "/work/job-write0.05s.5459488/mixerVessel2D/VTK/mixerVessel2D_937.vtk"
    Patch     : "/work/job-write0.05s.5459488/mixerVessel2D/VTK/rotor/rotor_937.vtk"
    Patch     : "/work/job-write0.05s.5459488/mixerVessel2D/VTK/stator/stator_937.vtk"
    Patch     : "/work/job-write0.05s.5459488/mixerVessel2D/VTK/front/front_937.vtk"
    Patch     : "/work/job-write0.05s.5459488/mixerVessel2D/VTK/back/back_937.vtk"
    surfScalarFields  : phi phiAlpha
Time: 3.25
    volScalarFields            : p alpha.water p_rgh
    volVectorFields            : U

    Internal  : "/work/job-write0.05s.5459488/mixerVessel2D/VTK/mixerVessel2D_966.vtk"
    Patch     : "/work/job-write0.05s.5459488/mixerVessel2D/VTK/rotor/rotor_966.vtk"
    Patch     : "/work/job-write0.05s.5459488/mixerVessel2D/VTK/stator/stator_966.vtk"
    Patch     : "/work/job-write0.05s.5459488/mixerVessel2D/VTK/front/front_966.vtk"
    Patch     : "/work/job-write0.05s.5459488/mixerVessel2D/VTK/back/back_966.vtk"
    surfScalarFields  : phi phiAlpha
Time: 3.375
    volScalarFields            : p alpha.water p_rgh
    volVectorFields            : U

    Internal  : "/work/job-write0.05s.5459488/mixerVessel2D/VTK/mixerVessel2D_997.vtk"
    Patch     : "/work/job-write0.05s.5459488/mixerVessel2D/VTK/rotor/rotor_997.vtk"
    Patch     : "/work/job-write0.05s.5459488/mixerVessel2D/VTK/stator/stator_997.vtk"
    Patch     : "/work/job-write0.05s.5459488/mixerVessel2D/VTK/front/front_997.vtk"
    Patch     : "/work/job-write0.05s.5459488/mixerVessel2D/VTK/back/back_997.vtk"
    surfScalarFields  : phi phiAlpha
Time: 3.5
    volScalarFields            : p alpha.water p_rgh
    volVectorFields            : U

    Internal  : "/work/job-write0.05s.5459488/mixerVessel2D/VTK/mixerVessel2D_1027.vtk"
    Patch     : "/work/job-write0.05s.5459488/mixerVessel2D/VTK/rotor/rotor_1027.vtk"
    Patch     : "/work/job-write0.05s.5459488/mixerVessel2D/VTK/stator/stator_1027.vtk"
    Patch     : "/work/job-write0.05s.5459488/mixerVessel2D/VTK/front/front_1027.vtk"
    Patch     : "/work/job-write0.05s.5459488/mixerVessel2D/VTK/back/back_1027.vtk"
    surfScalarFields  : phi phiAlpha
Time: 3.625
    volScalarFields            : p alpha.water p_rgh
    volVectorFields            : U

    Internal  : "/work/job-write0.05s.5459488/mixerVessel2D/VTK/mixerVessel2D_1057.vtk"
    Patch     : "/work/job-write0.05s.5459488/mixerVessel2D/VTK/rotor/rotor_1057.vtk"
    Patch     : "/work/job-write0.05s.5459488/mixerVessel2D/VTK/stator/stator_1057.vtk"
    Patch     : "/work/job-write0.05s.5459488/mixerVessel2D/VTK/front/front_1057.vtk"
    Patch     : "/work/job-write0.05s.5459488/mixerVessel2D/VTK/back/back_1057.vtk"
    surfScalarFields  : phi phiAlpha
Time: 3.75
    volScalarFields            : p alpha.water p_rgh
    volVectorFields            : U

    Internal  : "/work/job-write0.05s.5459488/mixerVessel2D/VTK/mixerVessel2D_1085.vtk"
    Patch     : "/work/job-write0.05s.5459488/mixerVessel2D/VTK/rotor/rotor_1085.vtk"
    Patch     : "/work/job-write0.05s.5459488/mixerVessel2D/VTK/stator/stator_1085.vtk"
    Patch     : "/work/job-write0.05s.5459488/mixerVessel2D/VTK/front/front_1085.vtk"
    Patch     : "/work/job-write0.05s.5459488/mixerVessel2D/VTK/back/back_1085.vtk"
    surfScalarFields  : phi phiAlpha
Time: 3.875
    volScalarFields            : p alpha.water p_rgh
    volVectorFields            : U

    Internal  : "/work/job-write0.05s.5459488/mixerVessel2D/VTK/mixerVessel2D_1112.vtk"
    Patch     : "/work/job-write0.05s.5459488/mixerVessel2D/VTK/rotor/rotor_1112.vtk"
    Patch     : "/work/job-write0.05s.5459488/mixerVessel2D/VTK/stator/stator_1112.vtk"
    Patch     : "/work/job-write0.05s.5459488/mixerVessel2D/VTK/front/front_1112.vtk"
    Patch     : "/work/job-write0.05s.5459488/mixerVessel2D/VTK/back/back_1112.vtk"
    surfScalarFields  : phi phiAlpha
Time: 4
    volScalarFields            : p alpha.water p_rgh
    volVectorFields            : U

    Internal  : "/work/job-write0.05s.5459488/mixerVessel2D/VTK/mixerVessel2D_1138.vtk"
    Patch     : "/work/job-write0.05s.5459488/mixerVessel2D/VTK/rotor/rotor_1138.vtk"
    Patch     : "/work/job-write0.05s.5459488/mixerVessel2D/VTK/stator/stator_1138.vtk"
    Patch     : "/work/job-write0.05s.5459488/mixerVessel2D/VTK/front/front_1138.vtk"
    Patch     : "/work/job-write0.05s.5459488/mixerVessel2D/VTK/back/back_1138.vtk"
    surfScalarFields  : phi phiAlpha
Time: 4.125
    volScalarFields            : p alpha.water p_rgh
    volVectorFields            : U

    Internal  : "/work/job-write0.05s.5459488/mixerVessel2D/VTK/mixerVessel2D_1164.vtk"
    Patch     : "/work/job-write0.05s.5459488/mixerVessel2D/VTK/rotor/rotor_1164.vtk"
    Patch     : "/work/job-write0.05s.5459488/mixerVessel2D/VTK/stator/stator_1164.vtk"
    Patch     : "/work/job-write0.05s.5459488/mixerVessel2D/VTK/front/front_1164.vtk"
    Patch     : "/work/job-write0.05s.5459488/mixerVessel2D/VTK/back/back_1164.vtk"
    surfScalarFields  : phi phiAlpha
Time: 4.25
    volScalarFields            : p alpha.water p_rgh
    volVectorFields            : U

    Internal  : "/work/job-write0.05s.5459488/mixerVessel2D/VTK/mixerVessel2D_1190.vtk"
    Patch     : "/work/job-write0.05s.5459488/mixerVessel2D/VTK/rotor/rotor_1190.vtk"
    Patch     : "/work/job-write0.05s.5459488/mixerVessel2D/VTK/stator/stator_1190.vtk"
    Patch     : "/work/job-write0.05s.5459488/mixerVessel2D/VTK/front/front_1190.vtk"
    Patch     : "/work/job-write0.05s.5459488/mixerVessel2D/VTK/back/back_1190.vtk"
    surfScalarFields  : phi phiAlpha
Time: 4.375
    volScalarFields            : p alpha.water p_rgh
    volVectorFields            : U

    Internal  : "/work/job-write0.05s.5459488/mixerVessel2D/VTK/mixerVessel2D_1215.vtk"
    Patch     : "/work/job-write0.05s.5459488/mixerVessel2D/VTK/rotor/rotor_1215.vtk"
    Patch     : "/work/job-write0.05s.5459488/mixerVessel2D/VTK/stator/stator_1215.vtk"
    Patch     : "/work/job-write0.05s.5459488/mixerVessel2D/VTK/front/front_1215.vtk"
    Patch     : "/work/job-write0.05s.5459488/mixerVessel2D/VTK/back/back_1215.vtk"
    surfScalarFields  : phi phiAlpha
Time: 4.5
    volScalarFields            : p alpha.water p_rgh
    volVectorFields            : U

    Internal  : "/work/job-write0.05s.5459488/mixerVessel2D/VTK/mixerVessel2D_1240.vtk"
    Patch     : "/work/job-write0.05s.5459488/mixerVessel2D/VTK/rotor/rotor_1240.vtk"
    Patch     : "/work/job-write0.05s.5459488/mixerVessel2D/VTK/stator/stator_1240.vtk"
    Patch     : "/work/job-write0.05s.5459488/mixerVessel2D/VTK/front/front_1240.vtk"
    Patch     : "/work/job-write0.05s.5459488/mixerVessel2D/VTK/back/back_1240.vtk"
    surfScalarFields  : phi phiAlpha
Time: 4.625
    volScalarFields            : p alpha.water p_rgh
    volVectorFields            : U

    Internal  : "/work/job-write0.05s.5459488/mixerVessel2D/VTK/mixerVessel2D_1267.vtk"
    Patch     : "/work/job-write0.05s.5459488/mixerVessel2D/VTK/rotor/rotor_1267.vtk"
    Patch     : "/work/job-write0.05s.5459488/mixerVessel2D/VTK/stator/stator_1267.vtk"
    Patch     : "/work/job-write0.05s.5459488/mixerVessel2D/VTK/front/front_1267.vtk"
    Patch     : "/work/job-write0.05s.5459488/mixerVessel2D/VTK/back/back_1267.vtk"
    surfScalarFields  : phi phiAlpha
Time: 4.75
    volScalarFields            : p alpha.water p_rgh
    volVectorFields            : U

    Internal  : "/work/job-write0.05s.5459488/mixerVessel2D/VTK/mixerVessel2D_1293.vtk"
    Patch     : "/work/job-write0.05s.5459488/mixerVessel2D/VTK/rotor/rotor_1293.vtk"
    Patch     : "/work/job-write0.05s.5459488/mixerVessel2D/VTK/stator/stator_1293.vtk"
    Patch     : "/work/job-write0.05s.5459488/mixerVessel2D/VTK/front/front_1293.vtk"
    Patch     : "/work/job-write0.05s.5459488/mixerVessel2D/VTK/back/back_1293.vtk"
    surfScalarFields  : phi phiAlpha
Time: 4.875
    volScalarFields            : p alpha.water p_rgh
    volVectorFields            : U

    Internal  : "/work/job-write0.05s.5459488/mixerVessel2D/VTK/mixerVessel2D_1318.vtk"
    Patch     : "/work/job-write0.05s.5459488/mixerVessel2D/VTK/rotor/rotor_1318.vtk"
    Patch     : "/work/job-write0.05s.5459488/mixerVessel2D/VTK/stator/stator_1318.vtk"
    Patch     : "/work/job-write0.05s.5459488/mixerVessel2D/VTK/front/front_1318.vtk"
    Patch     : "/work/job-write0.05s.5459488/mixerVessel2D/VTK/back/back_1318.vtk"
    surfScalarFields  : phi phiAlpha
Time: 5
    volScalarFields            : p alpha.water p_rgh
    volVectorFields            : U

    Internal  : "/work/job-write0.05s.5459488/mixerVessel2D/VTK/mixerVessel2D_1344.vtk"
    Patch     : "/work/job-write0.05s.5459488/mixerVessel2D/VTK/rotor/rotor_1344.vtk"
    Patch     : "/work/job-write0.05s.5459488/mixerVessel2D/VTK/stator/stator_1344.vtk"
    Patch     : "/work/job-write0.05s.5459488/mixerVessel2D/VTK/front/front_1344.vtk"
    Patch     : "/work/job-write0.05s.5459488/mixerVessel2D/VTK/back/back_1344.vtk"
    surfScalarFields  : phi phiAlpha
Time: 5.125
    volScalarFields            : p alpha.water p_rgh
    volVectorFields            : U

    Internal  : "/work/job-write0.05s.5459488/mixerVessel2D/VTK/mixerVessel2D_1370.vtk"
    Patch     : "/work/job-write0.05s.5459488/mixerVessel2D/VTK/rotor/rotor_1370.vtk"
    Patch     : "/work/job-write0.05s.5459488/mixerVessel2D/VTK/stator/stator_1370.vtk"
    Patch     : "/work/job-write0.05s.5459488/mixerVessel2D/VTK/front/front_1370.vtk"
    Patch     : "/work/job-write0.05s.5459488/mixerVessel2D/VTK/back/back_1370.vtk"
    surfScalarFields  : phi phiAlpha
Time: 5.25
    volScalarFields            : p alpha.water p_rgh
    volVectorFields            : U

    Internal  : "/work/job-write0.05s.5459488/mixerVessel2D/VTK/mixerVessel2D_1393.vtk"
    Patch     : "/work/job-write0.05s.5459488/mixerVessel2D/VTK/rotor/rotor_1393.vtk"
    Patch     : "/work/job-write0.05s.5459488/mixerVessel2D/VTK/stator/stator_1393.vtk"
    Patch     : "/work/job-write0.05s.5459488/mixerVessel2D/VTK/front/front_1393.vtk"
    Patch     : "/work/job-write0.05s.5459488/mixerVessel2D/VTK/back/back_1393.vtk"
    surfScalarFields  : phi phiAlpha
Time: 5.375
    volScalarFields            : p alpha.water p_rgh
    volVectorFields            : U

    Internal  : "/work/job-write0.05s.5459488/mixerVessel2D/VTK/mixerVessel2D_1417.vtk"
    Patch     : "/work/job-write0.05s.5459488/mixerVessel2D/VTK/rotor/rotor_1417.vtk"
    Patch     : "/work/job-write0.05s.5459488/mixerVessel2D/VTK/stator/stator_1417.vtk"
    Patch     : "/work/job-write0.05s.5459488/mixerVessel2D/VTK/front/front_1417.vtk"
    Patch     : "/work/job-write0.05s.5459488/mixerVessel2D/VTK/back/back_1417.vtk"
    surfScalarFields  : phi phiAlpha
Time: 5.5
    volScalarFields            : p alpha.water p_rgh
    volVectorFields            : U

    Internal  : "/work/job-write0.05s.5459488/mixerVessel2D/VTK/mixerVessel2D_1442.vtk"
    Patch     : "/work/job-write0.05s.5459488/mixerVessel2D/VTK/rotor/rotor_1442.vtk"
    Patch     : "/work/job-write0.05s.5459488/mixerVessel2D/VTK/stator/stator_1442.vtk"
    Patch     : "/work/job-write0.05s.5459488/mixerVessel2D/VTK/front/front_1442.vtk"
    Patch     : "/work/job-write0.05s.5459488/mixerVessel2D/VTK/back/back_1442.vtk"
    surfScalarFields  : phi phiAlpha
Time: 5.625
    volScalarFields            : p alpha.water p_rgh
    volVectorFields            : U

    Internal  : "/work/job-write0.05s.5459488/mixerVessel2D/VTK/mixerVessel2D_1468.vtk"
    Patch     : "/work/job-write0.05s.5459488/mixerVessel2D/VTK/rotor/rotor_1468.vtk"
    Patch     : "/work/job-write0.05s.5459488/mixerVessel2D/VTK/stator/stator_1468.vtk"
    Patch     : "/work/job-write0.05s.5459488/mixerVessel2D/VTK/front/front_1468.vtk"
    Patch     : "/work/job-write0.05s.5459488/mixerVessel2D/VTK/back/back_1468.vtk"
    surfScalarFields  : phi phiAlpha
Time: 5.75
    volScalarFields            : p alpha.water p_rgh
    volVectorFields            : U

    Internal  : "/work/job-write0.05s.5459488/mixerVessel2D/VTK/mixerVessel2D_1494.vtk"
    Patch     : "/work/job-write0.05s.5459488/mixerVessel2D/VTK/rotor/rotor_1494.vtk"
    Patch     : "/work/job-write0.05s.5459488/mixerVessel2D/VTK/stator/stator_1494.vtk"
    Patch     : "/work/job-write0.05s.5459488/mixerVessel2D/VTK/front/front_1494.vtk"
    Patch     : "/work/job-write0.05s.5459488/mixerVessel2D/VTK/back/back_1494.vtk"
    surfScalarFields  : phi phiAlpha
Time: 5.875
    volScalarFields            : p alpha.water p_rgh
    volVectorFields            : U

    Internal  : "/work/job-write0.05s.5459488/mixerVessel2D/VTK/mixerVessel2D_1522.vtk"
    Patch     : "/work/job-write0.05s.5459488/mixerVessel2D/VTK/rotor/rotor_1522.vtk"
    Patch     : "/work/job-write0.05s.5459488/mixerVessel2D/VTK/stator/stator_1522.vtk"
    Patch     : "/work/job-write0.05s.5459488/mixerVessel2D/VTK/front/front_1522.vtk"
    Patch     : "/work/job-write0.05s.5459488/mixerVessel2D/VTK/back/back_1522.vtk"
    surfScalarFields  : phi phiAlpha
Time: 6
    volScalarFields            : p alpha.water p_rgh
    volVectorFields            : U

    Internal  : "/work/job-write0.05s.5459488/mixerVessel2D/VTK/mixerVessel2D_1550.vtk"
    Patch     : "/work/job-write0.05s.5459488/mixerVessel2D/VTK/rotor/rotor_1550.vtk"
    Patch     : "/work/job-write0.05s.5459488/mixerVessel2D/VTK/stator/stator_1550.vtk"
    Patch     : "/work/job-write0.05s.5459488/mixerVessel2D/VTK/front/front_1550.vtk"
    Patch     : "/work/job-write0.05s.5459488/mixerVessel2D/VTK/back/back_1550.vtk"
    surfScalarFields  : phi phiAlpha
Time: 6.125
    volScalarFields            : p alpha.water p_rgh
    volVectorFields            : U

    Internal  : "/work/job-write0.05s.5459488/mixerVessel2D/VTK/mixerVessel2D_1577.vtk"
    Patch     : "/work/job-write0.05s.5459488/mixerVessel2D/VTK/rotor/rotor_1577.vtk"
    Patch     : "/work/job-write0.05s.5459488/mixerVessel2D/VTK/stator/stator_1577.vtk"
    Patch     : "/work/job-write0.05s.5459488/mixerVessel2D/VTK/front/front_1577.vtk"
    Patch     : "/work/job-write0.05s.5459488/mixerVessel2D/VTK/back/back_1577.vtk"
    surfScalarFields  : phi phiAlpha
Time: 6.25
    volScalarFields            : p alpha.water p_rgh
    volVectorFields            : U

    Internal  : "/work/job-write0.05s.5459488/mixerVessel2D/VTK/mixerVessel2D_1602.vtk"
    Patch     : "/work/job-write0.05s.5459488/mixerVessel2D/VTK/rotor/rotor_1602.vtk"
    Patch     : "/work/job-write0.05s.5459488/mixerVessel2D/VTK/stator/stator_1602.vtk"
    Patch     : "/work/job-write0.05s.5459488/mixerVessel2D/VTK/front/front_1602.vtk"
    Patch     : "/work/job-write0.05s.5459488/mixerVessel2D/VTK/back/back_1602.vtk"
    surfScalarFields  : phi phiAlpha
Time: 6.375
    volScalarFields            : p alpha.water p_rgh
    volVectorFields            : U

    Internal  : "/work/job-write0.05s.5459488/mixerVessel2D/VTK/mixerVessel2D_1628.vtk"
    Patch     : "/work/job-write0.05s.5459488/mixerVessel2D/VTK/rotor/rotor_1628.vtk"
    Patch     : "/work/job-write0.05s.5459488/mixerVessel2D/VTK/stator/stator_1628.vtk"
    Patch     : "/work/job-write0.05s.5459488/mixerVessel2D/VTK/front/front_1628.vtk"
    Patch     : "/work/job-write0.05s.5459488/mixerVessel2D/VTK/back/back_1628.vtk"
    surfScalarFields  : phi phiAlpha
Time: 6.5
    volScalarFields            : p alpha.water p_rgh
    volVectorFields            : U

    Internal  : "/work/job-write0.05s.5459488/mixerVessel2D/VTK/mixerVessel2D_1653.vtk"
    Patch     : "/work/job-write0.05s.5459488/mixerVessel2D/VTK/rotor/rotor_1653.vtk"
    Patch     : "/work/job-write0.05s.5459488/mixerVessel2D/VTK/stator/stator_1653.vtk"
    Patch     : "/work/job-write0.05s.5459488/mixerVessel2D/VTK/front/front_1653.vtk"
    Patch     : "/work/job-write0.05s.5459488/mixerVessel2D/VTK/back/back_1653.vtk"
    surfScalarFields  : phi phiAlpha
Time: 6.625
    volScalarFields            : p alpha.water p_rgh
    volVectorFields            : U

    Internal  : "/work/job-write0.05s.5459488/mixerVessel2D/VTK/mixerVessel2D_1679.vtk"
    Patch     : "/work/job-write0.05s.5459488/mixerVessel2D/VTK/rotor/rotor_1679.vtk"
    Patch     : "/work/job-write0.05s.5459488/mixerVessel2D/VTK/stator/stator_1679.vtk"
    Patch     : "/work/job-write0.05s.5459488/mixerVessel2D/VTK/front/front_1679.vtk"
    Patch     : "/work/job-write0.05s.5459488/mixerVessel2D/VTK/back/back_1679.vtk"
    surfScalarFields  : phi phiAlpha
Time: 6.75
    volScalarFields            : p alpha.water p_rgh
    volVectorFields            : U

    Internal  : "/work/job-write0.05s.5459488/mixerVessel2D/VTK/mixerVessel2D_1703.vtk"
    Patch     : "/work/job-write0.05s.5459488/mixerVessel2D/VTK/rotor/rotor_1703.vtk"
    Patch     : "/work/job-write0.05s.5459488/mixerVessel2D/VTK/stator/stator_1703.vtk"
    Patch     : "/work/job-write0.05s.5459488/mixerVessel2D/VTK/front/front_1703.vtk"
    Patch     : "/work/job-write0.05s.5459488/mixerVessel2D/VTK/back/back_1703.vtk"
    surfScalarFields  : phi phiAlpha
Time: 6.875
    volScalarFields            : p alpha.water p_rgh
    volVectorFields            : U

    Internal  : "/work/job-write0.05s.5459488/mixerVessel2D/VTK/mixerVessel2D_1727.vtk"
    Patch     : "/work/job-write0.05s.5459488/mixerVessel2D/VTK/rotor/rotor_1727.vtk"
    Patch     : "/work/job-write0.05s.5459488/mixerVessel2D/VTK/stator/stator_1727.vtk"
    Patch     : "/work/job-write0.05s.5459488/mixerVessel2D/VTK/front/front_1727.vtk"
    Patch     : "/work/job-write0.05s.5459488/mixerVessel2D/VTK/back/back_1727.vtk"
    surfScalarFields  : phi phiAlpha
Time: 7
    volScalarFields            : p alpha.water p_rgh
    volVectorFields            : U

    Internal  : "/work/job-write0.05s.5459488/mixerVessel2D/VTK/mixerVessel2D_1752.vtk"
    Patch     : "/work/job-write0.05s.5459488/mixerVessel2D/VTK/rotor/rotor_1752.vtk"
    Patch     : "/work/job-write0.05s.5459488/mixerVessel2D/VTK/stator/stator_1752.vtk"
    Patch     : "/work/job-write0.05s.5459488/mixerVessel2D/VTK/front/front_1752.vtk"
    Patch     : "/work/job-write0.05s.5459488/mixerVessel2D/VTK/back/back_1752.vtk"
    surfScalarFields  : phi phiAlpha
Time: 7.125
    volScalarFields            : p alpha.water p_rgh
    volVectorFields            : U

    Internal  : "/work/job-write0.05s.5459488/mixerVessel2D/VTK/mixerVessel2D_1777.vtk"
    Patch     : "/work/job-write0.05s.5459488/mixerVessel2D/VTK/rotor/rotor_1777.vtk"
    Patch     : "/work/job-write0.05s.5459488/mixerVessel2D/VTK/stator/stator_1777.vtk"
    Patch     : "/work/job-write0.05s.5459488/mixerVessel2D/VTK/front/front_1777.vtk"
    Patch     : "/work/job-write0.05s.5459488/mixerVessel2D/VTK/back/back_1777.vtk"
    surfScalarFields  : phi phiAlpha
Time: 7.25
    volScalarFields            : p alpha.water p_rgh
    volVectorFields            : U

    Internal  : "/work/job-write0.05s.5459488/mixerVessel2D/VTK/mixerVessel2D_1803.vtk"
    Patch     : "/work/job-write0.05s.5459488/mixerVessel2D/VTK/rotor/rotor_1803.vtk"
    Patch     : "/work/job-write0.05s.5459488/mixerVessel2D/VTK/stator/stator_1803.vtk"
    Patch     : "/work/job-write0.05s.5459488/mixerVessel2D/VTK/front/front_1803.vtk"
    Patch     : "/work/job-write0.05s.5459488/mixerVessel2D/VTK/back/back_1803.vtk"
    surfScalarFields  : phi phiAlpha
Time: 7.375
    volScalarFields            : p alpha.water p_rgh
    volVectorFields            : U

    Internal  : "/work/job-write0.05s.5459488/mixerVessel2D/VTK/mixerVessel2D_1828.vtk"
    Patch     : "/work/job-write0.05s.5459488/mixerVessel2D/VTK/rotor/rotor_1828.vtk"
    Patch     : "/work/job-write0.05s.5459488/mixerVessel2D/VTK/stator/stator_1828.vtk"
    Patch     : "/work/job-write0.05s.5459488/mixerVessel2D/VTK/front/front_1828.vtk"
    Patch     : "/work/job-write0.05s.5459488/mixerVessel2D/VTK/back/back_1828.vtk"
    surfScalarFields  : phi phiAlpha
Time: 7.5
    volScalarFields            : p alpha.water p_rgh
    volVectorFields            : U

    Internal  : "/work/job-write0.05s.5459488/mixerVessel2D/VTK/mixerVessel2D_1853.vtk"
    Patch     : "/work/job-write0.05s.5459488/mixerVessel2D/VTK/rotor/rotor_1853.vtk"
    Patch     : "/work/job-write0.05s.5459488/mixerVessel2D/VTK/stator/stator_1853.vtk"
    Patch     : "/work/job-write0.05s.5459488/mixerVessel2D/VTK/front/front_1853.vtk"
    Patch     : "/work/job-write0.05s.5459488/mixerVessel2D/VTK/back/back_1853.vtk"
    surfScalarFields  : phi phiAlpha
Time: 7.625
    volScalarFields            : p alpha.water p_rgh
    volVectorFields            : U

    Internal  : "/work/job-write0.05s.5459488/mixerVessel2D/VTK/mixerVessel2D_1877.vtk"
    Patch     : "/work/job-write0.05s.5459488/mixerVessel2D/VTK/rotor/rotor_1877.vtk"
    Patch     : "/work/job-write0.05s.5459488/mixerVessel2D/VTK/stator/stator_1877.vtk"
    Patch     : "/work/job-write0.05s.5459488/mixerVessel2D/VTK/front/front_1877.vtk"
    Patch     : "/work/job-write0.05s.5459488/mixerVessel2D/VTK/back/back_1877.vtk"
    surfScalarFields  : phi phiAlpha
Time: 7.75
    volScalarFields            : p alpha.water p_rgh
    volVectorFields            : U

    Internal  : "/work/job-write0.05s.5459488/mixerVessel2D/VTK/mixerVessel2D_1902.vtk"
    Patch     : "/work/job-write0.05s.5459488/mixerVessel2D/VTK/rotor/rotor_1902.vtk"
    Patch     : "/work/job-write0.05s.5459488/mixerVessel2D/VTK/stator/stator_1902.vtk"
    Patch     : "/work/job-write0.05s.5459488/mixerVessel2D/VTK/front/front_1902.vtk"
    Patch     : "/work/job-write0.05s.5459488/mixerVessel2D/VTK/back/back_1902.vtk"
    surfScalarFields  : phi phiAlpha
Time: 7.875
    volScalarFields            : p alpha.water p_rgh
    volVectorFields            : U

    Internal  : "/work/job-write0.05s.5459488/mixerVessel2D/VTK/mixerVessel2D_1927.vtk"
    Patch     : "/work/job-write0.05s.5459488/mixerVessel2D/VTK/rotor/rotor_1927.vtk"
    Patch     : "/work/job-write0.05s.5459488/mixerVessel2D/VTK/stator/stator_1927.vtk"
    Patch     : "/work/job-write0.05s.5459488/mixerVessel2D/VTK/front/front_1927.vtk"
    Patch     : "/work/job-write0.05s.5459488/mixerVessel2D/VTK/back/back_1927.vtk"
    surfScalarFields  : phi phiAlpha
Time: 8
    volScalarFields            : p alpha.water p_rgh
    volVectorFields            : U

    Internal  : "/work/job-write0.05s.5459488/mixerVessel2D/VTK/mixerVessel2D_1952.vtk"
    Patch     : "/work/job-write0.05s.5459488/mixerVessel2D/VTK/rotor/rotor_1952.vtk"
    Patch     : "/work/job-write0.05s.5459488/mixerVessel2D/VTK/stator/stator_1952.vtk"
    Patch     : "/work/job-write0.05s.5459488/mixerVessel2D/VTK/front/front_1952.vtk"
    Patch     : "/work/job-write0.05s.5459488/mixerVessel2D/VTK/back/back_1952.vtk"
    surfScalarFields  : phi phiAlpha
End

